24
CONF1
C -3.4416914500 -1.1708880643 0.0001749072
C -2.0501472057 -0.6168009402 0.0000475896
C -1.8667483150 0.7801989176 0.0000747002
C -0.6258354581 1.3589811107 -0.0000419658
C 0.5275794748 0.5265670860 0.0000076374
C 1.8418710487 1.0395570274 0.0002104774
C 2.9263098648 0.2058204733 0.0002135602
C 2.7527902959 -1.1854182501 -0.0000438466
C 1.4934671425 -1.7157348167 -0.0001953055
C 0.3548131057 -0.8832014092 -0.0001096884
C -0.9469539389 -1.4258451258 -0.0001310480
C -0.4894618983 2.8521111939 -0.0002338731
H -3.9830669140 -0.8279737295 0.8805982730
H -3.9838627545 -0.8264713227 -0.8791645034
H -3.4273212565 -2.2574183736 -0.0007308697
H -2.7465797001 1.4089914984 0.0001565066
H 1.9936597405 2.1074698641 0.0004255136
H 3.9258035382 0.6154807569 0.0004641635
H 3.6189195817 -1.8307822242 0.0000116852
H 1.3486236055 -2.7869045506 -0.0002905000
H -1.0564752879 -2.5014873936 -0.0002968889
H 0.0532289838 3.1874696150 0.8822199016
H 0.0546368139 3.1870796082 -0.8819614264
H -1.4699028107 3.3208700444 -0.0011118219
24
CONF2
C -3.4355027504 -1.1898628379 -0.0015079255
C -2.0535881670 -0.6084523851 0.0018440238
C -1.8676152723 0.7854008814 0.0009888837
C -0.6236730419 1.3622250246 -0.0000832715
C 0.5272392303 0.5290913449 0.0000019337
C 1.8431422481 1.0397990651 0.0008355299
C 2.9255963922 0.2043730477 0.0006024689
C 2.7497190807 -1.1873108899 -0.0005415941
C 1.4902149476 -1.7156488022 -0.0006917241
C 0.3520326490 -0.8810274389 -0.0001158898
C -0.9490096407 -1.4199406668 0.0008681952
C -0.4861157267 2.8552466096 -0.0010390930
H -4.1873749294 -0.4082965328 0.0658357410
H -3.6032930733 -1.7555825367 -0.9168477042
H -3.5620744747 -1.8711375089 0.8379549938
H -2.7433116255 1.4200537911 0.0007163776
H 1.9966214722 2.1074757779 0.0020288325
H 3.9259402691 0.6119165450 0.0013041647
H 3.6151619767 -1.8335668975 -0.0011670250
H 1.3434094122 -2.7865197595 -0.0011555194
H -1.0641343747 -2.4949725424 0.0011567626
H 0.0529273225 3.1909657260 0.8835435428
H 0.0621691218 3.1890887325 -0.8806365399
H -1.4660403301 3.3250605178 -0.0065754964
