17
 xtb: 6.7.1 (edcfbbe)
C           -2.08055220178292       -0.01763469652626        0.09155130128325
C           -0.76505098640949        0.66498213091531       -0.27664750857256
C            0.48212907182078        0.02002343169741        0.34267795721675
C            0.64904823297222       -1.43753920528818       -0.08936243212238
C            1.72890980238517        0.82722241087321       -0.02106480418173
H           -2.93584392037752        0.54816178758435       -0.29196449215598
H           -2.19203044200380       -0.09353098192934        1.17947524198565
H           -2.14446851061323       -1.02853029612289       -0.32267872689424
H           -0.64784736562824        0.67358231776677       -1.36982217130460
H           -0.80494895925019        1.71578732758827        0.03887515253564
H            0.36347502865229        0.04275261422983        1.43617092791431
H            1.57022717593357       -1.86335900710679        0.32308987652396
H            0.70671066538839       -1.50839558476750       -1.18297862799148
H           -0.18332354287577       -2.06394554808416        0.24534578257126
H            1.63736045020195        1.87042508423136        0.30116116684864
H            1.88364129287575        0.82362733340363       -1.10726519196323
H            2.62618907216379        0.40643320916402        0.44550674016350
