 xtb: 6.7.1 (edcfbbe)
          04062518003D

 24 24  0     0  0            999 V2000
   -2.0209   -0.5588   -0.6890 C   0  0  0  0  0  0  0  0  0  0  0  0
   -1.2097   -0.0806    0.5371 C   0  0  0  0  0  0  0  0  0  0  0  0
   -1.8745   -0.0313    1.4059 H   0  0  0  0  0  0  0  0  0  0  0  0
   -0.6209    1.3254    0.3012 C   0  0  0  0  0  0  0  0  0  0  0  0
   -1.3496    1.9117   -0.2693 H   0  0  0  0  0  0  0  0  0  0  0  0
    0.7028    1.2877   -0.5022 C   0  0  0  0  0  0  0  0  0  0  0  0
    1.1610    2.2803   -0.3999 H   0  0  0  0  0  0  0  0  0  0  0  0
    1.6595    0.2456    0.0982 C   0  0  0  0  0  0  0  0  0  0  0  0
    2.5165    0.1299   -0.5803 H   0  0  0  0  0  0  0  0  0  0  0  0
    0.9343   -1.1126    0.1953 C   0  0  0  0  0  0  0  0  0  0  0  0
    1.5558   -1.8269    0.7632 H   0  0  0  0  0  0  0  0  0  0  0  0
   -0.2316   -1.0265    0.9582 O   0  0  0  0  0  0  0  0  0  0  0  0
    0.7154   -1.5866   -1.1019 O   0  0  0  0  0  0  0  0  0  0  0  0
    2.0612    0.6994    1.3651 O   0  0  0  0  0  0  0  0  0  0  0  0
    0.5035    1.0732   -1.8757 O   0  0  0  0  0  0  0  0  0  0  0  0
   -0.4449    2.0131    1.5146 O   0  0  0  0  0  0  0  0  0  0  0  0
   -2.0768   -1.9717   -0.6909 O   0  0  0  0  0  0  0  0  0  0  0  0
   -1.5571   -0.1993   -1.6148 H   0  0  0  0  0  0  0  0  0  0  0  0
   -3.0212   -0.1230   -0.6083 H   0  0  0  0  0  0  0  0  0  0  0  0
    0.0030   -2.2517   -1.0676 H   0  0  0  0  0  0  0  0  0  0  0  0
    2.7307    0.1087    1.7392 H   0  0  0  0  0  0  0  0  0  0  0  0
    0.5518    0.1147   -2.0475 H   0  0  0  0  0  0  0  0  0  0  0  0
    0.3283    1.6415    1.9720 H   0  0  0  0  0  0  0  0  0  0  0  0
   -2.7940   -2.2594   -1.2717 H   0  0  0  0  0  0  0  0  0  0  0  0
  1  2  1  0  0  0  0
  2  3  1  0  0  0  0
  2  4  1  0  0  0  0
  4  5  1  0  0  0  0
  4  6  1  0  0  0  0
  6  7  1  0  0  0  0
  6  8  1  0  0  0  0
  8  9  1  0  0  0  0
  8 10  1  0  0  0  0
 10 11  1  0  0  0  0
  2 12  1  0  0  0  0
 10 12  1  0  0  0  0
 10 13  1  0  0  0  0
  8 14  1  0  0  0  0
  6 15  1  0  0  0  0
  4 16  1  0  0  0  0
  1 17  1  0  0  0  0
  1 18  1  0  0  0  0
  1 19  1  0  0  0  0
 13 20  1  0  0  0  0
 14 21  1  0  0  0  0
 15 22  1  0  0  0  0
 16 23  1  0  0  0  0
 17 24  1  0  0  0  0
M  END
