11
CONF1
C -3.2102020775 -0.0473649142 0.0000136217
C -1.7848333066 0.5096552524 0.0000026318
C -0.7944406405 -0.6314743067 -0.0000000109
Br 1.0924127262 0.0263909765 -0.0000348125
H -3.3929278122 -0.6638106053 0.8865265938
H -3.9392973404 0.7687052261 0.0000194461
H -3.3929410852 -0.6638098407 -0.8864966777
H -1.6274061568 1.1374461029 0.8831380329
H -1.6274201763 1.1374443068 -0.8831367258
H -0.8732846777 -1.2520873114 -0.8930483792
H -0.8732790057 -1.2520918179 0.8930456871
11
CONF2
C -2.4915489597 0.2305453858 0.3989246336
C -1.7651345337 0.0431636965 -0.9271192807
C -0.5205160509 -0.8067068819 -0.8416982706
Br 0.9093150979 0.0536684959 0.2692587249
H -2.7457727701 -0.7374566377 0.8446971171
H -1.8722868028 0.7811913946 1.1137948496
H -3.4193111440 0.7918775294 0.2542653956
H -1.5249407964 1.0119895175 -1.3784314651
H -2.4232730421 -0.4785060150 -1.6368964480
H -0.0507622925 -0.9599445067 -1.8123119455
H -0.7022302219 -1.7664230459 -0.3566344651
