 xtb: 6.7.1 (edcfbbe)
          04062516553D

 22 23  0     0  0            999 V2000
   -5.0637   -0.6837    0.0350 C   0  0  0  0  0  0  0  0  0  0  0  0
   -4.3080   -1.3777   -0.8958 C   0  0  0  0  0  0  0  0  0  0  0  0
   -2.9297   -1.2639   -0.8951 C   0  0  0  0  0  0  0  0  0  0  0  0
   -2.2938   -0.4406    0.0304 C   0  0  0  0  0  0  0  0  0  0  0  0
   -3.0580    0.2498    0.9666 C   0  0  0  0  0  0  0  0  0  0  0  0
   -4.4355    0.1243    0.9683 C   0  0  0  0  0  0  0  0  0  0  0  0
   -0.8235   -0.3347    0.0233 C   0  0  0  0  0  0  0  0  0  0  0  0
   -0.0549   -1.4943    0.0654 C   0  0  0  0  0  0  0  0  0  0  0  0
    1.3271   -1.4345    0.0682 C   0  0  0  0  0  0  0  0  0  0  0  0
    1.9789   -0.2048    0.0234 C   0  0  0  0  0  0  0  0  0  0  0  0
    1.2223    0.9627   -0.0349 C   0  0  0  0  0  0  0  0  0  0  0  0
   -0.1687    0.8975   -0.0354 C   0  0  0  0  0  0  0  0  0  0  0  0
   -1.0608    2.3671   -0.1670 Cl  0  0  0  0  0  0  0  0  0  0  0  0
    2.0199    2.4878   -0.1135 Cl  0  0  0  0  0  0  0  0  0  0  0  0
    3.6994   -0.1196    0.0326 Cl  0  0  0  0  0  0  0  0  0  0  0  0
    2.2539   -2.8848    0.1311 Cl  0  0  0  0  0  0  0  0  0  0  0  0
   -6.1390   -0.7743    0.0352 H   0  0  0  0  0  0  0  0  0  0  0  0
   -4.7934   -2.0100   -1.6232 H   0  0  0  0  0  0  0  0  0  0  0  0
   -2.3390   -1.7952   -1.6252 H   0  0  0  0  0  0  0  0  0  0  0  0
   -2.5702    0.8673    1.7047 H   0  0  0  0  0  0  0  0  0  0  0  0
   -5.0196    0.6593    1.7013 H   0  0  0  0  0  0  0  0  0  0  0  0
   -0.5448   -2.4532    0.1109 H   0  0  0  0  0  0  0  0  0  0  0  0
  1  2  4  0  0  0  0
  2  3  4  0  0  0  0
  3  4  4  0  0  0  0
  4  5  4  0  0  0  0
  1  6  4  0  0  0  0
  5  6  4  0  0  0  0
  4  7  1  0  0  0  0
  7  8  4  0  0  0  0
  8  9  4  0  0  0  0
  9 10  4  0  0  0  0
 10 11  4  0  0  0  0
  7 12  4  0  0  0  0
 11 12  4  0  0  0  0
 12 13  1  0  0  0  0
 11 14  1  0  0  0  0
 10 15  1  0  0  0  0
  9 16  1  0  0  0  0
  1 17  1  0  0  0  0
  2 18  1  0  0  0  0
  3 19  1  0  0  0  0
  5 20  1  0  0  0  0
  6 21  1  0  0  0  0
  8 22  1  0  0  0  0
M  END
