 xtb: 6.7.1 (edcfbbe)
          04062518003D

 24 24  0     0  0            999 V2000
   -2.3925   -1.1240   -0.3578 C   0  0  0  0  0  0  0  0  0  0  0  0
   -1.0672   -0.6159    0.2350 C   0  0  0  0  0  0  0  0  0  0  0  0
   -1.1166   -0.6247    1.3368 H   0  0  0  0  0  0  0  0  0  0  0  0
   -0.7805    0.8352   -0.2038 C   0  0  0  0  0  0  0  0  0  0  0  0
   -0.8671    0.9134   -1.2983 H   0  0  0  0  0  0  0  0  0  0  0  0
    0.6460    1.2543    0.1760 C   0  0  0  0  0  0  0  0  0  0  0  0
    0.6884    1.3895    1.2675 H   0  0  0  0  0  0  0  0  0  0  0  0
    1.6607    0.1763   -0.2268 C   0  0  0  0  0  0  0  0  0  0  0  0
    1.7098    0.1405   -1.3270 H   0  0  0  0  0  0  0  0  0  0  0  0
    1.2122   -1.2024    0.2926 C   0  0  0  0  0  0  0  0  0  0  0  0
    1.2123   -1.1822    1.3963 H   0  0  0  0  0  0  0  0  0  0  0  0
   -0.0669   -1.5139   -0.2003 O   0  0  0  0  0  0  0  0  0  0  0  0
    2.0876   -2.2027   -0.0886 O   0  0  0  0  0  0  0  0  0  0  0  0
    2.9090    0.5351    0.3111 O   0  0  0  0  0  0  0  0  0  0  0  0
    0.9283    2.4666   -0.4750 O   0  0  0  0  0  0  0  0  0  0  0  0
   -1.6677    1.7202    0.4286 O   0  0  0  0  0  0  0  0  0  0  0  0
   -3.5039   -0.3907    0.0886 O   0  0  0  0  0  0  0  0  0  0  0  0
   -2.4861   -2.1899   -0.1280 H   0  0  0  0  0  0  0  0  0  0  0  0
   -2.3584   -1.0078   -1.4435 H   0  0  0  0  0  0  0  0  0  0  0  0
    1.8670   -2.4931   -0.9880 H   0  0  0  0  0  0  0  0  0  0  0  0
    3.5221   -0.2094    0.2108 H   0  0  0  0  0  0  0  0  0  0  0  0
    1.8225    2.7457   -0.2272 H   0  0  0  0  0  0  0  0  0  0  0  0
   -2.5763    1.4633    0.1887 H   0  0  0  0  0  0  0  0  0  0  0  0
   -3.7183   -0.6402    0.9989 H   0  0  0  0  0  0  0  0  0  0  0  0
  1  2  1  0  0  0  0
  2  3  1  0  0  0  0
  2  4  1  0  0  0  0
  4  5  1  0  0  0  0
  4  6  1  0  0  0  0
  6  7  1  0  0  0  0
  6  8  1  0  0  0  0
  8  9  1  0  0  0  0
  8 10  1  0  0  0  0
 10 11  1  0  0  0  0
  2 12  1  0  0  0  0
 10 12  1  0  0  0  0
 10 13  1  0  0  0  0
  8 14  1  0  0  0  0
  6 15  1  0  0  0  0
  4 16  1  0  0  0  0
  1 17  1  0  0  0  0
  1 18  1  0  0  0  0
  1 19  1  0  0  0  0
 13 20  1  0  0  0  0
 14 21  1  0  0  0  0
 15 22  1  0  0  0  0
 16 23  1  0  0  0  0
 17 24  1  0  0  0  0
M  END
