 xtb: 6.7.1 (edcfbbe)
          04032521033D

 17 17  0     0  0            999 V2000
   -2.9129   -0.0009   -0.0160 C   0  0  0  0  0  0  0  0  0  0  0  0
   -1.4130    0.0015    0.0071 C   0  0  0  0  0  0  0  0  0  0  0  0
   -0.6964    1.1917    0.0077 C   0  0  0  0  0  0  0  0  0  0  0  0
    0.6841    1.1974    0.0105 C   0  0  0  0  0  0  0  0  0  0  0  0
    1.4013   -0.0002    0.0097 C   0  0  0  0  0  0  0  0  0  0  0  0
    0.6827   -1.1973    0.0105 C   0  0  0  0  0  0  0  0  0  0  0  0
   -0.6974   -1.1899    0.0077 C   0  0  0  0  0  0  0  0  0  0  0  0
    2.7787   -0.0013   -0.0624 N   0  0  0  0  0  0  0  0  0  0  0  0
   -3.3073    0.9199    0.4071 H   0  0  0  0  0  0  0  0  0  0  0  0
   -3.2728   -0.0838   -1.0421 H   0  0  0  0  0  0  0  0  0  0  0  0
   -3.3061   -0.8449    0.5465 H   0  0  0  0  0  0  0  0  0  0  0  0
   -1.2288    2.1328    0.0104 H   0  0  0  0  0  0  0  0  0  0  0  0
    1.2203    2.1358    0.0129 H   0  0  0  0  0  0  0  0  0  0  0  0
    1.2178   -2.1364    0.0131 H   0  0  0  0  0  0  0  0  0  0  0  0
   -1.2316   -2.1300    0.0108 H   0  0  0  0  0  0  0  0  0  0  0  0
    3.2332   -0.8493    0.2338 H   0  0  0  0  0  0  0  0  0  0  0  0
    3.2348    0.8463    0.2328 H   0  0  0  0  0  0  0  0  0  0  0  0
  1  2  1  0  0  0  0
  2  3  4  0  0  0  0
  3  4  4  0  0  0  0
  4  5  4  0  0  0  0
  5  6  4  0  0  0  0
  2  7  4  0  0  0  0
  6  7  4  0  0  0  0
  5  8  1  0  0  0  0
  1  9  1  0  0  0  0
  1 10  1  0  0  0  0
  1 11  1  0  0  0  0
  3 12  1  0  0  0  0
  4 13  1  0  0  0  0
  6 14  1  0  0  0  0
  7 15  1  0  0  0  0
  8 16  1  0  0  0  0
  8 17  1  0  0  0  0
M  END
