 xtb: 6.7.1 (edcfbbe)
          04062518003D

 24 24  0     0  0            999 V2000
   -2.2170   -0.8892   -0.1390 C   0  0  0  0  0  0  0  0  0  0  0  0
   -1.1244   -0.3326    0.7996 C   0  0  0  0  0  0  0  0  0  0  0  0
   -1.5735   -0.3122    1.8006 H   0  0  0  0  0  0  0  0  0  0  0  0
   -0.7095    1.1196    0.4790 C   0  0  0  0  0  0  0  0  0  0  0  0
   -1.5576    1.6199   -0.0028 H   0  0  0  0  0  0  0  0  0  0  0  0
    0.5117    1.2310   -0.4627 C   0  0  0  0  0  0  0  0  0  0  0  0
    0.8675    2.2672   -0.3917 H   0  0  0  0  0  0  0  0  0  0  0  0
    1.6301    0.2961    0.0204 C   0  0  0  0  0  0  0  0  0  0  0  0
    2.4328    0.2966   -0.7301 H   0  0  0  0  0  0  0  0  0  0  0  0
    1.0785   -1.1401    0.1169 C   0  0  0  0  0  0  0  0  0  0  0  0
    1.8203   -1.7906    0.6120 H   0  0  0  0  0  0  0  0  0  0  0  0
   -0.0318   -1.2432    0.9588 O   0  0  0  0  0  0  0  0  0  0  0  0
    0.8491   -1.5780   -1.1905 O   0  0  0  0  0  0  0  0  0  0  0  0
    2.0837    0.7621    1.2647 O   0  0  0  0  0  0  0  0  0  0  0  0
    0.1809    1.0061   -1.8076 O   0  0  0  0  0  0  0  0  0  0  0  0
   -0.4821    1.8467    1.6633 O   0  0  0  0  0  0  0  0  0  0  0  0
   -1.8881   -0.9628   -1.5007 O   0  0  0  0  0  0  0  0  0  0  0  0
   -3.1184   -0.2819    0.0127 H   0  0  0  0  0  0  0  0  0  0  0  0
   -2.4316   -1.9156    0.1683 H   0  0  0  0  0  0  0  0  0  0  0  0
    0.3563   -2.4127   -1.1884 H   0  0  0  0  0  0  0  0  0  0  0  0
    2.8549    0.2545    1.5559 H   0  0  0  0  0  0  0  0  0  0  0  0
    0.3067    0.0569   -2.0020 H   0  0  0  0  0  0  0  0  0  0  0  0
    0.3775    1.5802    2.0310 H   0  0  0  0  0  0  0  0  0  0  0  0
   -1.7366   -0.0720   -1.8539 H   0  0  0  0  0  0  0  0  0  0  0  0
  1  2  1  0  0  0  0
  2  3  1  0  0  0  0
  2  4  1  0  0  0  0
  4  5  1  0  0  0  0
  4  6  1  0  0  0  0
  6  7  1  0  0  0  0
  6  8  1  0  0  0  0
  8  9  1  0  0  0  0
  8 10  1  0  0  0  0
 10 11  1  0  0  0  0
  2 12  1  0  0  0  0
 10 12  1  0  0  0  0
 10 13  1  0  0  0  0
  8 14  1  0  0  0  0
  6 15  1  0  0  0  0
  4 16  1  0  0  0  0
  1 17  1  0  0  0  0
  1 18  1  0  0  0  0
  1 19  1  0  0  0  0
 13 20  1  0  0  0  0
 14 21  1  0  0  0  0
 15 22  1  0  0  0  0
 16 23  1  0  0  0  0
 17 24  1  0  0  0  0
M  END
