18
 xtb: 6.7.1 (edcfbbe)
C           -1.81721341835121       -1.46655394104536       -0.00005743105225
C           -0.52310129493377       -0.70476300407949        0.00000700830765
C            0.69829724973492       -1.38298665855724        0.00000839807403
C            1.91030435073152       -0.69555935665743       -0.00000432856029
C            1.91030148069254        0.69557081581842       -0.00001761439274
C            0.69829141194219        1.38299282266031        0.00001463718368
C           -0.52310419793343        0.70476372899682        0.00003515424043
C           -1.81721926465498        1.46654969229729       -0.00000579586763
H           -1.63740664799401       -2.54429892386236       -0.00016012556150
H           -2.42495470429740       -1.22077404608509        0.87871993085995
H           -2.42494383552810       -1.22059818158356       -0.87879516031002
H            0.69669867913349       -2.46997552712000        0.00001461759915
H            2.84664322226578       -1.24542760069148       -0.00000507576710
H            2.84663800264339        1.24544306950773       -0.00004668296229
H            0.69668750732333        2.46998170018347        0.00002407971400
H           -2.42539158145180        1.22001580672134        0.87825732683554
H           -1.63741651325886        2.54429502598986        0.00087216865550
H           -2.42451643886608        1.22134411339122       -0.87925712951732
