21
 xtb: 6.7.1 (edcfbbe)
C           -2.66035767445329       -0.65989910803456       -0.75035078831256
C           -1.87588712716693       -0.46375571019347        0.55402111733770
C           -0.39672779723313       -0.31120330944218        0.30531910948740
C            0.41336843992157       -1.45006075733909        0.26760811091580
C            1.77640270737768       -1.36598346548587       -0.00398933520788
C            2.35070091086181       -0.12086166537893       -0.24180986908461
C            1.55450425340564        1.02106249190729       -0.20600694822095
C            0.18355306268046        0.94949002297501        0.06218655152840
C           -0.63725791894319        2.20932838656496        0.10282346348060
H           -3.73250336764773       -0.75239807465661       -0.54874696933680
H           -2.33003227171188       -1.56875720439602       -1.26399468507308
H           -2.51443525367035        0.18421864240934       -1.43208273907481
H           -2.04162651343210       -1.33148685229202        1.20189563933816
H           -2.26436330948058        0.41160959939993        1.08408285026512
H           -0.03813456262973       -2.42101429793019        0.45770357881990
H            2.38408951205442       -2.26560039123625       -0.02484325674874
H            3.41258551603247       -0.03606116946224       -0.45208412200694
H            2.00342222829126        1.99406449611243       -0.38863823462001
H           -1.49095944568878        2.16011063365592       -0.58106554394801
H           -1.04160108803847        2.38982392458668        1.10560913055712
H           -0.02886387236536        3.07371439599164       -0.17433049852033
