 xtb: 6.7.1 (edcfbbe)
          04062518003D

 24 24  0     0  0            999 V2000
   -2.0789   -1.3717   -0.1088 C   0  0  0  0  0  0  0  0  0  0  0  0
   -1.0171   -0.5018    0.5866 C   0  0  0  0  0  0  0  0  0  0  0  0
   -1.4510   -0.1301    1.5238 H   0  0  0  0  0  0  0  0  0  0  0  0
   -0.6206    0.6964   -0.2969 C   0  0  0  0  0  0  0  0  0  0  0  0
   -0.4889    0.3570   -1.3324 H   0  0  0  0  0  0  0  0  0  0  0  0
    0.7198    1.2395    0.2269 C   0  0  0  0  0  0  0  0  0  0  0  0
    0.6509    1.3633    1.3157 H   0  0  0  0  0  0  0  0  0  0  0  0
    1.7999    0.1910   -0.0910 C   0  0  0  0  0  0  0  0  0  0  0  0
    2.0915    0.2751   -1.1437 H   0  0  0  0  0  0  0  0  0  0  0  0
    1.2195   -1.2364    0.1011 C   0  0  0  0  0  0  0  0  0  0  0  0
    1.9776   -1.8490    0.6086 H   0  0  0  0  0  0  0  0  0  0  0  0
    0.1209   -1.2648    0.9814 O   0  0  0  0  0  0  0  0  0  0  0  0
    0.9070   -1.7482   -1.1557 O   0  0  0  0  0  0  0  0  0  0  0  0
    2.9819    0.3813    0.6358 O   0  0  0  0  0  0  0  0  0  0  0  0
    1.0211    2.5180   -0.2583 O   0  0  0  0  0  0  0  0  0  0  0  0
   -1.6380    1.6633   -0.3386 O   0  0  0  0  0  0  0  0  0  0  0  0
   -3.3302   -0.7328   -0.1436 O   0  0  0  0  0  0  0  0  0  0  0  0
   -2.2187   -2.2926    0.4622 H   0  0  0  0  0  0  0  0  0  0  0  0
   -1.7414   -1.6244   -1.1228 H   0  0  0  0  0  0  0  0  0  0  0  0
    0.7740   -2.7071   -1.1084 H   0  0  0  0  0  0  0  0  0  0  0  0
    2.7889    0.4355    1.5833 H   0  0  0  0  0  0  0  0  0  0  0  0
    1.1198    2.4975   -1.2208 H   0  0  0  0  0  0  0  0  0  0  0  0
   -1.5507    2.2710    0.4102 H   0  0  0  0  0  0  0  0  0  0  0  0
   -3.2178    0.1514   -0.5295 H   0  0  0  0  0  0  0  0  0  0  0  0
  1  2  1  0  0  0  0
  2  3  1  0  0  0  0
  2  4  1  0  0  0  0
  4  5  1  0  0  0  0
  4  6  1  0  0  0  0
  6  7  1  0  0  0  0
  6  8  1  0  0  0  0
  8  9  1  0  0  0  0
  8 10  1  0  0  0  0
 10 11  1  0  0  0  0
  2 12  1  0  0  0  0
 10 12  1  0  0  0  0
 10 13  1  0  0  0  0
  8 14  1  0  0  0  0
  6 15  1  0  0  0  0
  4 16  1  0  0  0  0
  1 17  1  0  0  0  0
  1 18  1  0  0  0  0
  1 19  1  0  0  0  0
 13 20  1  0  0  0  0
 14 21  1  0  0  0  0
 15 22  1  0  0  0  0
 16 23  1  0  0  0  0
 17 24  1  0  0  0  0
M  END
