 xtb: 6.7.1 (edcfbbe)
          04062520243D

 22 23  0     0  0            999 V2000
   -3.6788   -0.1851   -0.0403 C   0  0  0  0  0  0  0  0  0  0  0  0
   -3.0390   -1.0425    0.8393 C   0  0  0  0  0  0  0  0  0  0  0  0
   -1.6604   -1.1513    0.8234 C   0  0  0  0  0  0  0  0  0  0  0  0
   -0.9045   -0.3947   -0.0670 C   0  0  0  0  0  0  0  0  0  0  0  0
   -1.5546    0.4593   -0.9523 C   0  0  0  0  0  0  0  0  0  0  0  0
   -2.9339    0.5613   -0.9382 C   0  0  0  0  0  0  0  0  0  0  0  0
    0.5641   -0.5249   -0.0791 C   0  0  0  0  0  0  0  0  0  0  0  0
    1.1463   -1.7812   -0.2358 C   0  0  0  0  0  0  0  0  0  0  0  0
    2.5193   -1.9367   -0.2624 C   0  0  0  0  0  0  0  0  0  0  0  0
    3.3434   -0.8320   -0.1248 C   0  0  0  0  0  0  0  0  0  0  0  0
    2.7902    0.4249    0.0475 C   0  0  0  0  0  0  0  0  0  0  0  0
    1.4138    0.5682    0.0686 C   0  0  0  0  0  0  0  0  0  0  0  0
    0.7511    2.1611    0.3401 Cl  0  0  0  0  0  0  0  0  0  0  0  0
   -4.7549   -0.0999   -0.0281 H   0  0  0  0  0  0  0  0  0  0  0  0
   -3.6157   -1.6277    1.5397 H   0  0  0  0  0  0  0  0  0  0  0  0
   -1.1588   -1.8128    1.5143 H   0  0  0  0  0  0  0  0  0  0  0  0
   -0.9771    1.0332   -1.6621 H   0  0  0  0  0  0  0  0  0  0  0  0
   -3.4285    1.2257   -1.6311 H   0  0  0  0  0  0  0  0  0  0  0  0
    0.4984   -2.6368   -0.3509 H   0  0  0  0  0  0  0  0  0  0  0  0
    2.9464   -2.9187   -0.3908 H   0  0  0  0  0  0  0  0  0  0  0  0
    4.4157   -0.9438   -0.1454 H   0  0  0  0  0  0  0  0  0  0  0  0
    3.4178    1.2930    0.1695 H   0  0  0  0  0  0  0  0  0  0  0  0
  1  2  4  0  0  0  0
  2  3  4  0  0  0  0
  3  4  4  0  0  0  0
  4  5  4  0  0  0  0
  1  6  4  0  0  0  0
  5  6  4  0  0  0  0
  4  7  1  0  0  0  0
  7  8  4  0  0  0  0
  8  9  4  0  0  0  0
  9 10  4  0  0  0  0
 10 11  4  0  0  0  0
  7 12  4  0  0  0  0
 11 12  4  0  0  0  0
 12 13  1  0  0  0  0
  1 14  1  0  0  0  0
  2 15  1  0  0  0  0
  3 16  1  0  0  0  0
  5 17  1  0  0  0  0
  6 18  1  0  0  0  0
  8 19  1  0  0  0  0
  9 20  1  0  0  0  0
 10 21  1  0  0  0  0
 11 22  1  0  0  0  0
M  END
