24
CONF1
C -3.8530569368 -0.6263959897 0.0018429832
N -2.6726071855 0.2113096022 0.0003166959
C -2.8952256342 1.6443396067 -0.0012114760
C -1.4477465578 -0.3719307819 -0.0003669066
O -1.3149149756 -1.5977752112 -0.0000133012
N -0.3908929752 0.5037092699 -0.0010051228
C 0.9774126819 0.2311546720 -0.0004786613
C 1.8473757781 1.3229141439 0.0005692258
C 3.2146488825 1.1305744205 0.0011522858
C 3.7395192953 -0.1515279566 0.0006761640
C 2.8801822114 -1.2366834667 -0.0005083652
C 1.5088727162 -1.0552653861 -0.0011218121
H -3.5321870830 -1.6659311147 0.0058161667
H -4.4509549477 -0.4386568083 -0.8911610970
H -4.4527505329 -0.4321952832 0.8921865068
H -2.4767192375 2.1108702299 -0.8956142915
H -2.4791735219 2.1124117984 0.8936166458
H -3.9681329325 1.8147190806 -0.0030055247
H -0.6099602016 1.4889293885 -0.0000850953
H 1.4463991302 2.3259655481 0.0008828208
H 3.8737638437 1.9855088593 0.0019215462
H 4.8078179596 -0.3031460255 0.0013259900
H 3.2765461084 -2.2410493592 -0.0007934252
H 0.8442454671 -1.9032941977 -0.0019073250
24
CONF2
C -3.8145291916 -0.6764661445 0.0130228964
N -2.6782306484 0.2260843243 -0.0036033611
C -2.8997124338 1.6578844869 -0.0123268666
C -1.4510260507 -0.3527231843 0.0011711860
O -1.3321644636 -1.5794377759 0.0131166277
N -0.3896711455 0.5177061301 -0.0096293397
C 0.9767134705 0.2368638527 -0.0052033310
C 1.4988460118 -1.0534183738 0.0075951463
C 2.8688156978 -1.2445688059 0.0123869654
C 3.7358552586 -0.1655412118 0.0043559960
C 3.2202028667 1.1201970322 -0.0088618829
C 1.8543339346 1.3223740934 -0.0136622092
H -3.7771443599 -1.3409247110 -0.8525154466
H -4.7359103173 -0.1053799028 -0.0047423618
H -3.7857954168 -1.3005592189 0.9086050668
H -2.4792338251 2.1287968771 0.8794359019
H -3.9699179116 1.8417968882 -0.0147658633
H -2.4774522098 2.1172978080 -0.9091322541
H -0.6042608643 1.5038827259 -0.0188168276
H 0.8278017203 -1.8964537170 0.0140606493
H 3.2581832485 -2.2516412481 0.0225092963
H 4.8030532633 -0.3247524028 0.0083301942
H 3.8854382923 1.9703614561 -0.0153520772
H 1.4603707501 2.3281731602 -0.0237972145
24
CONF3
C -1.3711229510 0.6844822838 1.5287535700
N -1.9904201325 0.4812321683 0.2387045226
C -3.1761441939 1.2726317872 -0.0083533297
C -1.6372848091 -0.4730030090 -0.6436721284
O -2.3626417762 -0.8135552824 -1.5843308944
N -0.4403732862 -1.1324755497 -0.4273809155
C 0.8016308676 -0.5514786820 -0.1312255852
C 1.0453777966 0.8075648799 -0.3098801994
C 2.2863942162 1.3355859613 -0.0028643974
C 3.2996691978 0.5197134566 0.4704783313
C 3.0684770238 -0.8378413182 0.6235638360
C 1.8302935432 -1.3733899557 0.3249118617
H -0.7463366057 1.5803994004 1.5305839662
H -0.7598321907 -0.1723231263 1.7966159170
H -2.1592009125 0.8034452541 2.2726576577
H -3.9595222848 1.0250960019 0.7103167227
H -3.5350721316 1.0553697802 -1.0119703017
H -2.9307286572 2.3316638419 0.0760147591
H -0.3876176953 -2.0060769814 -0.9353125676
H 0.2696479478 1.4396532989 -0.7142608642
H 2.4640436830 2.3905165283 -0.1469110336
H 4.2662222391 0.9360766363 0.7072171347
H 3.8567725880 -1.4840485088 0.9783884711
H 1.6503337337 -2.4312184119 0.4417548954
24
CONF4
C -3.2380701733 -0.7197940583 0.8848071076
N -2.0160679378 -0.0696055138 0.4467478040
C -1.4523116685 0.9402198752 1.3142979191
C -1.5929796372 -0.3315668598 -0.8046812607
O -2.2774998252 -0.9734151750 -1.6083692453
N -0.3815819761 0.2039445545 -1.2066671476
C 0.8292313571 0.1802111634 -0.4994117804
C 1.8696506325 1.0006596514 -0.9312250203
C 3.0772707880 1.0047191618 -0.2598886860
C 3.2663543217 0.1921229703 0.8463499309
C 2.2424072765 -0.6403387137 1.2647516226
C 1.0319155006 -0.6552708321 0.5958442855
H -3.0671885656 -1.7888475120 1.0239214869
H -4.0152691444 -0.6013645114 0.1280523962
H -3.5614398137 -0.2793669539 1.8216823587
H -0.7849734842 1.5875163314 0.7527898600
H -0.8952433869 0.4876589718 2.1376074419
H -2.2622499424 1.5446920518 1.7225092497
H -0.2833648819 0.2101503923 -2.2138392915
H 1.7225586218 1.6319615664 -1.7942915129
H 3.8745496067 1.6468037818 -0.6019452796
H 4.2088619532 0.1997001073 1.3709788988
H 2.3880316539 -1.2933736330 2.1117937775
H 0.2487056856 -1.3312601033 0.9028365251
