 xtb: 6.7.1 (edcfbbe)
          04062511443D

 31 31  0     0  0            999 V2000
    3.7240    0.1858    0.0427 C   0  0  0  0  0  0  0  0  0  0  0  0
    2.2460    0.3315   -0.3091 C   0  0  0  0  0  0  0  0  0  0  0  0
    2.1595    0.5520   -1.3791 H   0  0  0  0  0  0  0  0  0  0  0  0
    1.6001    1.4713    0.4764 C   0  0  0  0  0  0  0  0  0  0  0  0
    0.1195    1.5947    0.1326 C   0  0  0  0  0  0  0  0  0  0  0  0
   -0.6463    0.2995    0.4265 C   0  0  0  0  0  0  0  0  0  0  0  0
   -0.5227    0.0700    1.4926 H   0  0  0  0  0  0  0  0  0  0  0  0
    0.0012   -0.8447   -0.3746 C   0  0  0  0  0  0  0  0  0  0  0  0
   -0.0914   -0.6369   -1.4455 H   0  0  0  0  0  0  0  0  0  0  0  0
    1.4873   -0.9613   -0.0181 C   0  0  0  0  0  0  0  0  0  0  0  0
   -0.6466   -2.0922   -0.1978 O   0  0  0  0  0  0  0  0  0  0  0  0
   -2.1588    0.4938    0.1732 C   0  0  0  0  0  0  0  0  0  0  0  0
   -2.5373    0.4368   -1.3055 C   0  0  0  0  0  0  0  0  0  0  0  0
   -3.0041   -0.5128    0.9541 C   0  0  0  0  0  0  0  0  0  0  0  0
    4.1749   -0.6220   -0.5285 H   0  0  0  0  0  0  0  0  0  0  0  0
    4.2597    1.1055   -0.1791 H   0  0  0  0  0  0  0  0  0  0  0  0
    3.8424   -0.0337    1.1015 H   0  0  0  0  0  0  0  0  0  0  0  0
    1.7122    1.2799    1.5462 H   0  0  0  0  0  0  0  0  0  0  0  0
    2.1075    2.4111    0.2506 H   0  0  0  0  0  0  0  0  0  0  0  0
   -0.3208    2.4103    0.7099 H   0  0  0  0  0  0  0  0  0  0  0  0
    0.0177    1.8430   -0.9257 H   0  0  0  0  0  0  0  0  0  0  0  0
    1.5808   -1.2009    1.0451 H   0  0  0  0  0  0  0  0  0  0  0  0
    1.9167   -1.7880   -0.5886 H   0  0  0  0  0  0  0  0  0  0  0  0
   -0.4955   -2.3859    0.7114 H   0  0  0  0  0  0  0  0  0  0  0  0
   -2.4084    1.4950    0.5470 H   0  0  0  0  0  0  0  0  0  0  0  0
   -3.5824    0.7121   -1.4277 H   0  0  0  0  0  0  0  0  0  0  0  0
   -2.4044   -0.5709   -1.6913 H   0  0  0  0  0  0  0  0  0  0  0  0
   -1.9347    1.1233   -1.8947 H   0  0  0  0  0  0  0  0  0  0  0  0
   -2.8308   -1.5187    0.5825 H   0  0  0  0  0  0  0  0  0  0  0  0
   -4.0604   -0.2816    0.8358 H   0  0  0  0  0  0  0  0  0  0  0  0
   -2.7652   -0.4794    2.0149 H   0  0  0  0  0  0  0  0  0  0  0  0
  1  2  1  0  0  0  0
  2  3  1  0  0  0  0
  2  4  1  0  0  0  0
  4  5  1  0  0  0  0
  5  6  1  0  0  0  0
  6  7  1  0  0  0  0
  6  8  1  0  0  0  0
  8  9  1  0  0  0  0
  2 10  1  0  0  0  0
  8 10  1  0  0  0  0
  8 11  1  0  0  0  0
  6 12  1  0  0  0  0
 12 13  1  0  0  0  0
 12 14  1  0  0  0  0
  1 15  1  0  0  0  0
  1 16  1  0  0  0  0
  1 17  1  0  0  0  0
  4 18  1  0  0  0  0
  4 19  1  0  0  0  0
  5 20  1  0  0  0  0
  5 21  1  0  0  0  0
 10 22  1  0  0  0  0
 10 23  1  0  0  0  0
 11 24  1  0  0  0  0
 12 25  1  0  0  0  0
 13 26  1  0  0  0  0
 13 27  1  0  0  0  0
 13 28  1  0  0  0  0
 14 29  1  0  0  0  0
 14 30  1  0  0  0  0
 14 31  1  0  0  0  0
M  END
