 xtb: 6.7.1 (edcfbbe)
          04052516073D

 27 27  0     0  0            999 V2000
   -2.4511    0.6568   -1.3030 C   0  0  0  0  0  0  0  0  0  0  0  0
   -2.0461    0.4146    0.1603 C   0  0  0  0  0  0  0  0  0  0  0  0
   -2.9665    0.3736    0.7518 H   0  0  0  0  0  0  0  0  0  0  0  0
   -1.1192    1.5226    0.6953 C   0  0  0  0  0  0  0  0  0  0  0  0
    0.3070    1.0438    0.9595 C   0  0  0  0  0  0  0  0  0  0  0  0
    0.7928    0.1973   -0.2230 C   0  0  0  0  0  0  0  0  0  0  0  0
    0.5409    0.7398   -1.1422 H   0  0  0  0  0  0  0  0  0  0  0  0
    0.0117   -1.1144   -0.1793 C   0  0  0  0  0  0  0  0  0  0  0  0
   -1.4334   -0.9638    0.2119 C   0  0  0  0  0  0  0  0  0  0  0  0
   -2.1027   -1.9355    0.5172 O   0  0  0  0  0  0  0  0  0  0  0  0
    2.2950    0.0148   -0.2414 C   0  0  0  0  0  0  0  0  0  0  0  0
    2.9113   -1.1561   -0.2887 C   0  0  0  0  0  0  0  0  0  0  0  0
    3.0869    1.2925   -0.2497 C   0  0  0  0  0  0  0  0  0  0  0  0
   -3.1075   -0.1405   -1.6462 H   0  0  0  0  0  0  0  0  0  0  0  0
   -2.9839    1.6008   -1.3811 H   0  0  0  0  0  0  0  0  0  0  0  0
   -1.5790    0.6894   -1.9497 H   0  0  0  0  0  0  0  0  0  0  0  0
   -1.0878    2.3346   -0.0328 H   0  0  0  0  0  0  0  0  0  0  0  0
   -1.5348    1.9265    1.6190 H   0  0  0  0  0  0  0  0  0  0  0  0
    0.9434    1.9134    1.1118 H   0  0  0  0  0  0  0  0  0  0  0  0
    0.3427    0.4353    1.8661 H   0  0  0  0  0  0  0  0  0  0  0  0
    0.0383   -1.6285   -1.1433 H   0  0  0  0  0  0  0  0  0  0  0  0
    0.4525   -1.7964    0.5521 H   0  0  0  0  0  0  0  0  0  0  0  0
    3.9865   -1.2122   -0.3265 H   0  0  0  0  0  0  0  0  0  0  0  0
    2.4013   -2.1020   -0.2937 H   0  0  0  0  0  0  0  0  0  0  0  0
    4.0872    1.1180   -0.6357 H   0  0  0  0  0  0  0  0  0  0  0  0
    2.5994    2.0471   -0.8623 H   0  0  0  0  0  0  0  0  0  0  0  0
    3.1841    1.6857    0.7612 H   0  0  0  0  0  0  0  0  0  0  0  0
  1  2  1  0  0  0  0
  2  3  1  0  0  0  0
  2  4  1  0  0  0  0
  4  5  1  0  0  0  0
  5  6  1  0  0  0  0
  6  7  1  0  0  0  0
  6  8  1  0  0  0  0
  2  9  1  0  0  0  0
  8  9  1  0  0  0  0
  9 10  2  0  0  0  0
  6 11  1  0  0  0  0
 11 12  2  0  0  0  0
 11 13  1  0  0  0  0
  1 14  1  0  0  0  0
  1 15  1  0  0  0  0
  1 16  1  0  0  0  0
  4 17  1  0  0  0  0
  4 18  1  0  0  0  0
  5 19  1  0  0  0  0
  5 20  1  0  0  0  0
  8 21  1  0  0  0  0
  8 22  1  0  0  0  0
 12 23  1  0  0  0  0
 12 24  1  0  0  0  0
 13 25  1  0  0  0  0
 13 26  1  0  0  0  0
 13 27  1  0  0  0  0
M  END
