12
 xtb: 6.7.1 (edcfbbe)
C           -1.96155289544142        0.49207282643392        0.06345863046275
C           -0.89869193581020       -0.58343371750316       -0.12269424674106
C            0.55101133499830       -0.16504687443354       -0.02393083593624
O            1.45895013567456       -1.00363200503458       -0.18353386110723
N            0.81841190787925        1.12403571980110        0.24256122048738
H           -2.95631689348722        0.05012672380283       -0.04118541174060
H           -1.90890163707422        0.94750482395225        1.05805340029732
H           -1.87348080803856        1.28384246211359       -0.68794170906475
H           -1.00418477536669       -1.06430284551153       -1.10246178889493
H           -1.02807820947747       -1.38365343535845        0.61613940579808
H            0.08541837587004        1.80199123361321        0.37646676521968
H            1.77954812916734        1.42363463120888        0.31621440028575
