 xtb: 6.7.1 (edcfbbe)
          04062511443D

 31 31  0     0  0            999 V2000
    3.6836    0.3628    0.0705 C   0  0  0  0  0  0  0  0  0  0  0  0
    2.2132    0.3033   -0.3332 C   0  0  0  0  0  0  0  0  0  0  0  0
    2.1466    0.3686   -1.4255 H   0  0  0  0  0  0  0  0  0  0  0  0
    1.4253    1.4644    0.2710 C   0  0  0  0  0  0  0  0  0  0  0  0
   -0.0450    1.3815   -0.1258 C   0  0  0  0  0  0  0  0  0  0  0  0
   -0.6742    0.0719    0.3543 C   0  0  0  0  0  0  0  0  0  0  0  0
   -0.5327   -0.0052    1.4392 H   0  0  0  0  0  0  0  0  0  0  0  0
    0.1044   -1.1029   -0.2706 C   0  0  0  0  0  0  0  0  0  0  0  0
    0.0217   -1.0544   -1.3675 H   0  0  0  0  0  0  0  0  0  0  0  0
    1.5835   -1.0141    0.1109 C   0  0  0  0  0  0  0  0  0  0  0  0
   -0.3480   -2.3703    0.1800 O   0  0  0  0  0  0  0  0  0  0  0  0
   -2.1933   -0.0074    0.0946 C   0  0  0  0  0  0  0  0  0  0  0  0
   -2.9610    0.9389    1.0190 C   0  0  0  0  0  0  0  0  0  0  0  0
   -2.5835    0.2630   -1.3582 C   0  0  0  0  0  0  0  0  0  0  0  0
    4.1308    1.2974   -0.2593 H   0  0  0  0  0  0  0  0  0  0  0  0
    3.7820    0.2963    1.1516 H   0  0  0  0  0  0  0  0  0  0  0  0
    4.2357   -0.4609   -0.3754 H   0  0  0  0  0  0  0  0  0  0  0  0
    1.5139    1.4311    1.3592 H   0  0  0  0  0  0  0  0  0  0  0  0
    1.8450    2.4126   -0.0709 H   0  0  0  0  0  0  0  0  0  0  0  0
   -0.5829    2.2269    0.3036 H   0  0  0  0  0  0  0  0  0  0  0  0
   -0.1207    1.4450   -1.2126 H   0  0  0  0  0  0  0  0  0  0  0  0
    1.6603   -1.1203    1.1950 H   0  0  0  0  0  0  0  0  0  0  0  0
    2.1056   -1.8607   -0.3395 H   0  0  0  0  0  0  0  0  0  0  0  0
   -1.2177   -2.5567   -0.1955 H   0  0  0  0  0  0  0  0  0  0  0  0
   -2.5090   -1.0253    0.3522 H   0  0  0  0  0  0  0  0  0  0  0  0
   -2.7381    1.9772    0.7880 H   0  0  0  0  0  0  0  0  0  0  0  0
   -2.7047    0.7528    2.0593 H   0  0  0  0  0  0  0  0  0  0  0  0
   -4.0314    0.7892    0.8979 H   0  0  0  0  0  0  0  0  0  0  0  0
   -2.4202    1.3069   -1.6122 H   0  0  0  0  0  0  0  0  0  0  0  0
   -3.6389    0.0428   -1.5022 H   0  0  0  0  0  0  0  0  0  0  0  0
   -2.0117   -0.3540   -2.0467 H   0  0  0  0  0  0  0  0  0  0  0  0
  1  2  1  0  0  0  0
  2  3  1  0  0  0  0
  2  4  1  0  0  0  0
  4  5  1  0  0  0  0
  5  6  1  0  0  0  0
  6  7  1  0  0  0  0
  6  8  1  0  0  0  0
  8  9  1  0  0  0  0
  2 10  1  0  0  0  0
  8 10  1  0  0  0  0
  8 11  1  0  0  0  0
  6 12  1  0  0  0  0
 12 13  1  0  0  0  0
 12 14  1  0  0  0  0
  1 15  1  0  0  0  0
  1 16  1  0  0  0  0
  1 17  1  0  0  0  0
  4 18  1  0  0  0  0
  4 19  1  0  0  0  0
  5 20  1  0  0  0  0
  5 21  1  0  0  0  0
 10 22  1  0  0  0  0
 10 23  1  0  0  0  0
 11 24  1  0  0  0  0
 12 25  1  0  0  0  0
 13 26  1  0  0  0  0
 13 27  1  0  0  0  0
 13 28  1  0  0  0  0
 14 29  1  0  0  0  0
 14 30  1  0  0  0  0
 14 31  1  0  0  0  0
M  END
