 xtb: 6.7.1 (edcfbbe)
          04042521533D

 17 17  0     0  0            999 V2000
   -2.8196    1.0440   -0.0007 C   0  0  0  0  0  0  0  0  0  0  0  0
   -2.2173   -0.2363    0.0006 O   0  0  0  0  0  0  0  0  0  0  0  0
   -0.8560   -0.3188    0.0003 C   0  0  0  0  0  0  0  0  0  0  0  0
   -0.3259   -1.6110    0.0001 C   0  0  0  0  0  0  0  0  0  0  0  0
    1.0403   -1.7927   -0.0002 C   0  0  0  0  0  0  0  0  0  0  0  0
    1.9013   -0.7072   -0.0004 C   0  0  0  0  0  0  0  0  0  0  0  0
    1.3759    0.5769    0.0000 C   0  0  0  0  0  0  0  0  0  0  0  0
   -0.0029    0.7741    0.0002 C   0  0  0  0  0  0  0  0  0  0  0  0
    2.1609    1.6879    0.0002 O   0  0  0  0  0  0  0  0  0  0  0  0
   -2.5441    1.6085   -0.8952 H   0  0  0  0  0  0  0  0  0  0  0  0
   -2.5448    1.6099    0.8931 H   0  0  0  0  0  0  0  0  0  0  0  0
   -3.8906    0.8558   -0.0011 H   0  0  0  0  0  0  0  0  0  0  0  0
   -1.0070   -2.4461    0.0005 H   0  0  0  0  0  0  0  0  0  0  0  0
    1.4450   -2.7927   -0.0005 H   0  0  0  0  0  0  0  0  0  0  0  0
    2.9697   -0.8600   -0.0008 H   0  0  0  0  0  0  0  0  0  0  0  0
   -0.3633    1.7893    0.0004 H   0  0  0  0  0  0  0  0  0  0  0  0
    3.0980    1.4411   -0.0000 H   0  0  0  0  0  0  0  0  0  0  0  0
  1  2  1  0  0  0  0
  2  3  1  0  0  0  0
  3  4  4  0  0  0  0
  4  5  4  0  0  0  0
  5  6  4  0  0  0  0
  6  7  4  0  0  0  0
  3  8  4  0  0  0  0
  7  8  4  0  0  0  0
  7  9  1  0  0  0  0
  1 10  1  0  0  0  0
  1 11  1  0  0  0  0
  1 12  1  0  0  0  0
  4 13  1  0  0  0  0
  5 14  1  0  0  0  0
  6 15  1  0  0  0  0
  8 16  1  0  0  0  0
  9 17  1  0  0  0  0
M  END
