16
 xtb: 6.7.1 (edcfbbe)
C            1.29797135400253        1.52554626854212       -0.19087415665812
C            0.68658572796767        0.15801034955651       -0.47299084494138
C            1.42641247659183       -0.95088573637427        0.30025577351972
C           -0.77690770083222        0.08989343515169       -0.08613726338464
O           -1.23811893354554        0.79209347612469        0.80948017240649
C           -1.63421245399849       -0.88247843621162       -0.83795072352407
H            1.27803797593899        1.74932725745607        0.87995252761872
H            2.34072243311245        1.54123368117515       -0.52169378422863
H            0.75897358594739        2.31972745041283       -0.71671557327243
H            0.75415476850240       -0.07273382812955       -1.54354758177301
H            1.36593348288667       -0.76593820567018        1.37798273090458
H            2.48145329571354       -0.95476651593708        0.01083127708413
H            1.01159512033446       -1.94160823813694        0.09307282942293
H           -1.10372870910026       -1.82147765137452       -1.02085517994124
H           -1.84601794666599       -0.44436685520567       -1.82216551282570
H           -2.57647141246829       -1.06395346669961       -0.31829981984864
