 xtb: 6.7.1 (edcfbbe)
          04062518003D

 24 24  0     0  0            999 V2000
   -1.8920   -0.5561   -0.8298 C   0  0  0  0  0  0  0  0  0  0  0  0
   -1.1972   -0.1063    0.4615 C   0  0  0  0  0  0  0  0  0  0  0  0
   -1.9415   -0.0982    1.2657 H   0  0  0  0  0  0  0  0  0  0  0  0
   -0.6071    1.3100    0.3291 C   0  0  0  0  0  0  0  0  0  0  0  0
   -1.3343    1.9407   -0.1923 H   0  0  0  0  0  0  0  0  0  0  0  0
    0.6946    1.3051   -0.4929 C   0  0  0  0  0  0  0  0  0  0  0  0
    1.1750    2.2840   -0.3343 H   0  0  0  0  0  0  0  0  0  0  0  0
    1.6689    0.2403    0.0505 C   0  0  0  0  0  0  0  0  0  0  0  0
    2.4737    0.0892   -0.6833 H   0  0  0  0  0  0  0  0  0  0  0  0
    0.9830   -1.1256    0.2470 C   0  0  0  0  0  0  0  0  0  0  0  0
    1.6050   -1.7342    0.9284 H   0  0  0  0  0  0  0  0  0  0  0  0
   -0.2335   -1.0420    0.9355 O   0  0  0  0  0  0  0  0  0  0  0  0
    0.8894   -1.7447   -0.9980 O   0  0  0  0  0  0  0  0  0  0  0  0
    2.1715    0.7383    1.2661 O   0  0  0  0  0  0  0  0  0  0  0  0
    0.3709    1.1186   -1.8432 O   0  0  0  0  0  0  0  0  0  0  0  0
   -0.4121    1.9072    1.5848 O   0  0  0  0  0  0  0  0  0  0  0  0
   -2.5223   -1.7979   -0.5929 O   0  0  0  0  0  0  0  0  0  0  0  0
   -1.1593   -0.6329   -1.6390 H   0  0  0  0  0  0  0  0  0  0  0  0
   -2.6304    0.2118   -1.0897 H   0  0  0  0  0  0  0  0  0  0  0  0
    0.4328   -2.5942   -0.8998 H   0  0  0  0  0  0  0  0  0  0  0  0
    2.8787    0.1677    1.6002 H   0  0  0  0  0  0  0  0  0  0  0  0
    1.1618    1.2282   -2.3911 H   0  0  0  0  0  0  0  0  0  0  0  0
    0.3512    1.4882    2.0165 H   0  0  0  0  0  0  0  0  0  0  0  0
   -3.0322   -2.0440   -1.3771 H   0  0  0  0  0  0  0  0  0  0  0  0
  1  2  1  0  0  0  0
  2  3  1  0  0  0  0
  2  4  1  0  0  0  0
  4  5  1  0  0  0  0
  4  6  1  0  0  0  0
  6  7  1  0  0  0  0
  6  8  1  0  0  0  0
  8  9  1  0  0  0  0
  8 10  1  0  0  0  0
 10 11  1  0  0  0  0
  2 12  1  0  0  0  0
 10 12  1  0  0  0  0
 10 13  1  0  0  0  0
  8 14  1  0  0  0  0
  6 15  1  0  0  0  0
  4 16  1  0  0  0  0
  1 17  1  0  0  0  0
  1 18  1  0  0  0  0
  1 19  1  0  0  0  0
 13 20  1  0  0  0  0
 14 21  1  0  0  0  0
 15 22  1  0  0  0  0
 16 23  1  0  0  0  0
 17 24  1  0  0  0  0
M  END
