13
 xtb: 6.7.1 (edcfbbe)
C           -1.83231517890107       -1.34640633857863       -0.00000220951994
C           -0.49426606850277       -1.70649330422065        0.00003764975441
C            0.50124099565083       -0.73285482305368        0.00004280092665
C            0.14031420832703        0.61418374661735        0.00000722431463
C           -1.19774385428254        0.99029452306859       -0.00003103089067
C           -2.18202100518814        0.00384429642740       -0.00003599498008
O           -3.51605978931256        0.31308046600025       -0.00008069384172
Cl           1.35693497968760        1.86960669522859        0.00001137910621
Cl           2.17930347280109       -1.22548739417849        0.00008252213994
H           -2.60618046817624       -2.10561584786154       -0.00000995959200
H           -0.21526005806044       -2.75402947001653        0.00005991104371
H           -1.47289133499569        2.03980691038564       -0.00006157262712
H           -3.62636130866344        1.27493254664939       -0.00013488072096
