25
CONF3
C -4.2802600985 -0.2475539411 -0.0840960821
C -2.7932573978 -0.0463395267 -0.0684431665
C -1.9620193126 -0.8664889838 0.7003404490
C -0.5806525938 -0.7071223352 0.6833497385
C 0.0028489990 0.2969333699 -0.0936571446
C -0.8228157535 1.1388981224 -0.8447962786
C -2.1993418634 0.9583594377 -0.8414958162
C 1.4676948963 0.5820174937 -0.0595041764
O 1.8570630896 1.7586102189 0.1086536327
N 2.3400236602 -0.4424274894 -0.1743819057
C 3.7694105946 -0.1637020323 -0.0402084943
C 2.0092323260 -1.7657544904 -0.7029920749
H -4.8078270932 0.7065410587 -0.1704261905
H -4.5754251736 -0.8609664195 -0.9439895616
H -4.6215123686 -0.7594704169 0.8192966385
H -2.4029636459 -1.6395004111 1.3235182952
H 0.0413335518 -1.3558623633 1.2921298138
H -0.3780702689 1.9326704672 -1.4370253431
H -2.8275840303 1.6106744129 -1.4417933983
H 4.1934759758 0.2088507642 -0.9812770164
H 4.2799416634 -1.0905889431 0.2321523126
H 3.9386579276 0.5791398412 0.7406208103
H 0.9810501031 -1.7957187709 -1.0598401292
H 2.1502293922 -2.5410588417 0.0579580992
H 2.6724449334 -1.9843412385 -1.5474175026
25
CONF2
C -4.2697626341 -0.2573463571 -0.0148095051
C -2.7803787765 -0.0750491011 -0.0418992711
C -1.9364473137 -0.8980307997 0.7090221567
C -0.5566740636 -0.7228519293 0.6880863230
C 0.0114996457 0.2989735729 -0.0763724928
C -0.8269678231 1.1418041093 -0.8128917818
C -2.2009703247 0.9450807004 -0.8066772809
C 1.4746520188 0.5937246029 -0.0486870730
O 1.8571334909 1.7703422584 0.1366327280
N 2.3525135543 -0.4231392011 -0.1849056666
C 3.7803418712 -0.1361949590 -0.0538426134
C 2.0288500323 -1.7331316719 -0.7498481917
H -4.7416874281 0.5122956201 0.6073561813
H -4.6959355153 -0.1652629731 -1.0183621210
H -4.5432569418 -1.2327035039 0.3949708553
H -2.3653479946 -1.6886150838 1.3184553299
H 0.0760073110 -1.3771191836 1.2797930341
H -0.3933611926 1.9450666350 -1.4007782168
H -2.8387274498 1.5942104943 -1.4005927481
H 4.1933162481 0.2716962605 -0.9852087705
H 4.3009832654 -1.0671781323 0.1832380452
H 3.9497952464 0.5814435571 0.7503703598
H 0.9943581814 -1.7657482904 -1.0876948335
H 2.1949915568 -2.5304341351 -0.0170626004
H 2.6784318644 -1.9156579761 -1.6135877752
25
CONF1
C -4.2690232690 -0.2613749306 0.0012284529
C -2.7783368422 -0.0902253250 -0.0198288441
C -1.9476797926 -0.9558395955 0.6999923536
C -0.5679646373 -0.7895667382 0.7035766046
C 0.0163902993 0.2646847464 -0.0045870239
C -0.8068630941 1.1446550208 -0.7115430842
C -2.1834597233 0.9575961688 -0.7307285234
C 1.4798056766 0.5527611951 0.0589127761
O 1.8620316923 1.7186250207 0.3008200287
N 2.3570095742 -0.4602737630 -0.1073886073
C 3.7839904082 -0.1852876647 0.0561967948
C 2.0372850332 -1.7462980306 -0.7276929687
H -4.5468432769 -1.3177266515 0.0541768583
H -4.6987362183 0.2328028829 0.8809910038
H -4.7318762473 0.1818308573 -0.8842582187
H -2.3892035866 -1.7714869289 1.2660516191
H 0.0534347677 -1.4752412450 1.2710250080
H -0.3615358517 1.9705338899 -1.2575788700
H -2.8091812158 1.6377896730 -1.3018714139
H 4.2957724255 -1.1253607785 0.2755430578
H 3.9432043634 0.5086450086 0.8826447683
H 4.2142251508 0.2461153628 -0.8563448347
H 2.7081617485 -1.9027441839 -1.5798175981
H 1.0119717889 -1.7568247237 -1.0938374333
H 2.1771136997 -2.5710912397 -0.0205257930
