16
 xtb: 6.7.1 (edcfbbe)
C            1.96677423712030        0.14713382331968       -0.49808719728676
C            0.79668627209517        0.04381314504352        0.46173936465773
H            1.16849269928945       -0.05858626603825        1.48939297507100
C           -0.20414245828644        1.20624047987812        0.35025093736806
C           -1.31387237308300        0.63087685437932       -0.53491331068038
C           -1.34676852737846       -0.81159539809153       -0.06206680248532
O            0.03772881570238       -1.16521343720214        0.14241979638857
H            1.61365843286266        0.31118775638997       -1.52225480342980
H            2.61280933612402        0.98420582547990       -0.21370540692392
H            2.56722251844657       -0.76792327459013       -0.47813068815042
H           -0.60680357087826        1.45904032473903        1.33599759701247
H            0.26267774012317        2.10043526783042       -0.07059251268637
H           -2.27254862375974        1.13876024048150       -0.40331637502182
H           -1.03394348300515        0.67545077262055       -1.59262186981724
H           -1.90183677499881       -0.90262173896678        0.88439164581040
H           -1.76740023997319       -1.51332508030808       -0.78851764045547
