21
 xtb: 6.7.1 (edcfbbe)
C           -1.86053673944819       -2.18216187544642       -0.00006159940239
C           -1.39838517684629       -0.75404713578276       -0.00002396312480
C           -2.31269532488694        0.27969916329482        0.00000456969370
C           -1.90636255235953        1.63127646811925        0.00004781195893
C           -0.57252825285637        1.95584073786878        0.00002514759762
C            0.40823833004929        0.93333060729326       -0.00000401563764
C           -0.00367609090938       -0.43968124611742        0.00000687863938
C            0.99876577749389       -1.44257475489390        0.00005463475927
C            2.33454466710399       -1.11082932035117        0.00004668671911
C            2.73638893975706        0.24136474792598       -0.00001418620893
C            1.79158645560892        1.23994660580641       -0.00003403328067
H           -2.95170023018661       -2.23105570361000       -0.00052617714231
H           -1.49350925210853       -2.72193312857723       -0.88036950352516
H           -1.49428170983521       -2.72171848908485        0.88070721002826
H           -3.37393731544730        0.04698955561063       -0.00001761594057
H           -2.65959524440140        2.41324138853672        0.00008016614849
H           -0.24913712432297        2.99296349403200        0.00003370440962
H            0.70785455880092       -2.48740058754677        0.00010874527978
H            3.08644590326295       -1.89391409444719        0.00008996107231
H            3.79329988779003        0.48895824354126       -0.00004901940640
H            2.09138034997913        2.28444109077142       -0.00007255051121
