 xtb: 6.7.1 (edcfbbe)
          04032521373D

 12 11  0     0  0            999 V2000
   -1.2568   -0.7367   -0.1282 C   0  0  0  0  0  0  0  0  0  0  0  0
   -0.0024   -0.0192    0.3683 C   0  0  0  0  0  0  0  0  0  0  0  0
    1.2632   -0.7081   -0.1323 C   0  0  0  0  0  0  0  0  0  0  0  0
    0.0442    1.3257   -0.0875 O   0  0  0  0  0  0  0  0  0  0  0  0
   -1.2891   -0.7108   -1.2149 H   0  0  0  0  0  0  0  0  0  0  0  0
   -1.2435   -1.7717    0.2000 H   0  0  0  0  0  0  0  0  0  0  0  0
   -2.1541   -0.2611    0.2615 H   0  0  0  0  0  0  0  0  0  0  0  0
    0.0028   -0.0204    1.4716 H   0  0  0  0  0  0  0  0  0  0  0  0
    1.2629   -0.7275   -1.2189 H   0  0  0  0  0  0  0  0  0  0  0  0
    1.3126   -1.7236    0.2477 H   0  0  0  0  0  0  0  0  0  0  0  0
    2.1371   -0.1558    0.2020 H   0  0  0  0  0  0  0  0  0  0  0  0
   -0.7769    1.7739    0.1552 H   0  0  0  0  0  0  0  0  0  0  0  0
  1  2  1  0  0  0  0
  2  3  1  0  0  0  0
  2  4  1  0  0  0  0
  1  5  1  0  0  0  0
  1  6  1  0  0  0  0
  1  7  1  0  0  0  0
  2  8  1  0  0  0  0
  3  9  1  0  0  0  0
  3 10  1  0  0  0  0
  3 11  1  0  0  0  0
  4 12  1  0  0  0  0
M  END
