 xtb: 6.7.1 (edcfbbe)
          04052509103D

 21 21  0     0  0            999 V2000
   -2.6507   -0.6799   -0.6919 C   0  0  0  0  0  0  0  0  0  0  0  0
   -1.8629   -0.4324    0.5971 C   0  0  0  0  0  0  0  0  0  0  0  0
   -0.3949   -0.2827    0.3036 C   0  0  0  0  0  0  0  0  0  0  0  0
    0.3963   -1.4235    0.2490 C   0  0  0  0  0  0  0  0  0  0  0  0
    1.7436   -1.3530   -0.0541 C   0  0  0  0  0  0  0  0  0  0  0  0
    2.3201   -0.1214   -0.3076 C   0  0  0  0  0  0  0  0  0  0  0  0
    1.5418    1.0208   -0.2549 C   0  0  0  0  0  0  0  0  0  0  0  0
    0.1863    0.9617    0.0449 C   0  0  0  0  0  0  0  0  0  0  0  0
   -0.6149    2.2292    0.0981 C   0  0  0  0  0  0  0  0  0  0  0  0
   -2.5223    0.1468   -1.3865 H   0  0  0  0  0  0  0  0  0  0  0  0
   -3.7102   -0.7886   -0.4736 H   0  0  0  0  0  0  0  0  0  0  0  0
   -2.3003   -1.5873   -1.1785 H   0  0  0  0  0  0  0  0  0  0  0  0
   -2.0097   -1.2817    1.2678 H   0  0  0  0  0  0  0  0  0  0  0  0
   -2.2482    0.4583    1.0926 H   0  0  0  0  0  0  0  0  0  0  0  0
   -0.0555   -2.3849    0.4500 H   0  0  0  0  0  0  0  0  0  0  0  0
    2.3394   -2.2530   -0.0907 H   0  0  0  0  0  0  0  0  0  0  0  0
    3.3714   -0.0493   -0.5446 H   0  0  0  0  0  0  0  0  0  0  0  0
    1.9961    1.9817   -0.4524 H   0  0  0  0  0  0  0  0  0  0  0  0
   -0.0006    3.0776   -0.1923 H   0  0  0  0  0  0  0  0  0  0  0  0
   -1.4718    2.1782   -0.5700 H   0  0  0  0  0  0  0  0  0  0  0  0
   -0.9846    2.4045    1.1078 H   0  0  0  0  0  0  0  0  0  0  0  0
  1  2  1  0  0  0  0
  2  3  1  0  0  0  0
  3  4  4  0  0  0  0
  4  5  4  0  0  0  0
  5  6  4  0  0  0  0
  6  7  4  0  0  0  0
  3  8  4  0  0  0  0
  7  8  4  0  0  0  0
  8  9  1  0  0  0  0
  1 10  1  0  0  0  0
  1 11  1  0  0  0  0
  1 12  1  0  0  0  0
  2 13  1  0  0  0  0
  2 14  1  0  0  0  0
  4 15  1  0  0  0  0
  5 16  1  0  0  0  0
  6 17  1  0  0  0  0
  7 18  1  0  0  0  0
  9 19  1  0  0  0  0
  9 20  1  0  0  0  0
  9 21  1  0  0  0  0
M  END
