 xtb: 6.7.1 (edcfbbe)
          04042516023D

 14 13  0     0  0            999 V2000
   -1.9844   -0.9432   -0.5797 C   0  0  0  0  0  0  0  0  0  0  0  0
   -1.4409   -0.0163    0.5060 C   0  0  0  0  0  0  0  0  0  0  0  0
   -0.0228    0.4154    0.2322 C   0  0  0  0  0  0  0  0  0  0  0  0
    0.3679    1.5644    0.2887 O   0  0  0  0  0  0  0  0  0  0  0  0
    0.7623   -0.6136   -0.0548 O   0  0  0  0  0  0  0  0  0  0  0  0
    2.1450   -0.3748   -0.3302 C   0  0  0  0  0  0  0  0  0  0  0  0
   -1.9969   -0.4358   -1.5411 H   0  0  0  0  0  0  0  0  0  0  0  0
   -1.3643   -1.8311   -0.6614 H   0  0  0  0  0  0  0  0  0  0  0  0
   -2.9987   -1.2413   -0.3314 H   0  0  0  0  0  0  0  0  0  0  0  0
   -1.4409   -0.5390    1.4645 H   0  0  0  0  0  0  0  0  0  0  0  0
   -2.0504    0.8826    0.5982 H   0  0  0  0  0  0  0  0  0  0  0  0
    2.2982   -0.4082   -1.4084 H   0  0  0  0  0  0  0  0  0  0  0  0
    2.7021   -1.1711    0.1570 H   0  0  0  0  0  0  0  0  0  0  0  0
    2.4385    0.6021    0.0559 H   0  0  0  0  0  0  0  0  0  0  0  0
  1  2  1  0  0  0  0
  2  3  1  0  0  0  0
  3  4  2  0  0  0  0
  3  5  1  0  0  0  0
  5  6  1  0  0  0  0
  1  7  1  0  0  0  0
  1  8  1  0  0  0  0
  1  9  1  0  0  0  0
  2 10  1  0  0  0  0
  2 11  1  0  0  0  0
  6 12  1  0  0  0  0
  6 13  1  0  0  0  0
  6 14  1  0  0  0  0
M  END
