 xtb: 6.7.1 (edcfbbe)
          04052516073D

 27 27  0     0  0            999 V2000
   -3.2628    0.2761   -0.2459 C   0  0  0  0  0  0  0  0  0  0  0  0
   -1.8587    0.5772    0.2926 C   0  0  0  0  0  0  0  0  0  0  0  0
   -1.9639    0.9492    1.3177 H   0  0  0  0  0  0  0  0  0  0  0  0
   -1.1223    1.6076   -0.5641 C   0  0  0  0  0  0  0  0  0  0  0  0
    0.3713    1.5304   -0.2657 C   0  0  0  0  0  0  0  0  0  0  0  0
    0.9570    0.2182   -0.8078 C   0  0  0  0  0  0  0  0  0  0  0  0
    1.1977    0.3605   -1.8655 H   0  0  0  0  0  0  0  0  0  0  0  0
   -0.0834   -0.9277   -0.7219 C   0  0  0  0  0  0  0  0  0  0  0  0
   -1.0889   -0.7224    0.3708 C   0  0  0  0  0  0  0  0  0  0  0  0
   -1.3052   -1.5492    1.2385 O   0  0  0  0  0  0  0  0  0  0  0  0
    2.2305   -0.1767   -0.0994 C   0  0  0  0  0  0  0  0  0  0  0  0
    3.3646   -0.3184   -0.7687 C   0  0  0  0  0  0  0  0  0  0  0  0
    2.1550   -0.4118    1.3799 C   0  0  0  0  0  0  0  0  0  0  0  0
   -3.7566   -0.4599    0.3843 H   0  0  0  0  0  0  0  0  0  0  0  0
   -3.8556    1.1865   -0.2563 H   0  0  0  0  0  0  0  0  0  0  0  0
   -3.2068   -0.1162   -1.2588 H   0  0  0  0  0  0  0  0  0  0  0  0
   -1.2975    1.4157   -1.6236 H   0  0  0  0  0  0  0  0  0  0  0  0
   -1.5043    2.6037   -0.3388 H   0  0  0  0  0  0  0  0  0  0  0  0
    0.9000    2.3714   -0.7146 H   0  0  0  0  0  0  0  0  0  0  0  0
    0.5093    1.5861    0.8150 H   0  0  0  0  0  0  0  0  0  0  0  0
   -0.6501   -0.9565   -1.6544 H   0  0  0  0  0  0  0  0  0  0  0  0
    0.4150   -1.8896   -0.5943 H   0  0  0  0  0  0  0  0  0  0  0  0
    4.2788   -0.6102   -0.2804 H   0  0  0  0  0  0  0  0  0  0  0  0
    3.4286   -0.1442   -1.8293 H   0  0  0  0  0  0  0  0  0  0  0  0
    2.9994   -1.0083    1.7144 H   0  0  0  0  0  0  0  0  0  0  0  0
    2.1821    0.5356    1.9175 H   0  0  0  0  0  0  0  0  0  0  0  0
    1.2342   -0.9244    1.6504 H   0  0  0  0  0  0  0  0  0  0  0  0
  1  2  1  0  0  0  0
  2  3  1  0  0  0  0
  2  4  1  0  0  0  0
  4  5  1  0  0  0  0
  5  6  1  0  0  0  0
  6  7  1  0  0  0  0
  6  8  1  0  0  0  0
  2  9  1  0  0  0  0
  8  9  1  0  0  0  0
  9 10  2  0  0  0  0
  6 11  1  0  0  0  0
 11 12  2  0  0  0  0
 11 13  1  0  0  0  0
  1 14  1  0  0  0  0
  1 15  1  0  0  0  0
  1 16  1  0  0  0  0
  4 17  1  0  0  0  0
  4 18  1  0  0  0  0
  5 19  1  0  0  0  0
  5 20  1  0  0  0  0
  8 21  1  0  0  0  0
  8 22  1  0  0  0  0
 12 23  1  0  0  0  0
 12 24  1  0  0  0  0
 13 25  1  0  0  0  0
 13 26  1  0  0  0  0
 13 27  1  0  0  0  0
M  END
