 xtb: 6.7.1 (edcfbbe)
          04042519583D

 16 16  0     0  0            999 V2000
    2.4731    1.2064   -0.0270 C   0  0  0  0  0  0  0  0  0  0  0  0
    1.6969   -0.0767    0.0020 C   0  0  0  0  0  0  0  0  0  0  0  0
    2.2500   -1.1643    0.0259 O   0  0  0  0  0  0  0  0  0  0  0  0
    0.2166    0.0232    0.0006 C   0  0  0  0  0  0  0  0  0  0  0  0
   -0.4836    1.2305   -0.0058 C   0  0  0  0  0  0  0  0  0  0  0  0
   -1.8672    1.1967   -0.0068 C   0  0  0  0  0  0  0  0  0  0  0  0
   -2.5030   -0.0369   -0.0008 C   0  0  0  0  0  0  0  0  0  0  0  0
   -1.8528   -1.1926    0.0055 N   0  0  0  0  0  0  0  0  0  0  0  0
   -0.5345   -1.1568    0.0061 C   0  0  0  0  0  0  0  0  0  0  0  0
    2.2137    1.7769   -0.9152 H   0  0  0  0  0  0  0  0  0  0  0  0
    3.5363    0.9826   -0.0353 H   0  0  0  0  0  0  0  0  0  0  0  0
    2.2343    1.8012    0.8513 H   0  0  0  0  0  0  0  0  0  0  0  0
    0.0336    2.1763   -0.0094 H   0  0  0  0  0  0  0  0  0  0  0  0
   -2.4437    2.1072   -0.0116 H   0  0  0  0  0  0  0  0  0  0  0  0
   -3.5813   -0.1137   -0.0002 H   0  0  0  0  0  0  0  0  0  0  0  0
   -0.0247   -2.1115    0.0112 H   0  0  0  0  0  0  0  0  0  0  0  0
  1  2  1  0  0  0  0
  2  3  2  0  0  0  0
  2  4  1  0  0  0  0
  4  5  4  0  0  0  0
  5  6  4  0  0  0  0
  6  7  4  0  0  0  0
  7  8  4  0  0  0  0
  4  9  4  0  0  0  0
  8  9  4  0  0  0  0
  1 10  1  0  0  0  0
  1 11  1  0  0  0  0
  1 12  1  0  0  0  0
  5 13  1  0  0  0  0
  6 14  1  0  0  0  0
  7 15  1  0  0  0  0
  9 16  1  0  0  0  0
M  END
