 xtb: 6.7.1 (edcfbbe)
          04062502133D

 24 25  0     0  0            999 V2000
   -2.6762   -1.6838    0.8300 C   0  0  0  0  0  0  0  0  0  0  0  0
   -2.3238   -1.0065   -0.4971 C   0  0  0  0  0  0  0  0  0  0  0  0
   -1.2963    0.0726   -0.2937 C   0  0  0  0  0  0  0  0  0  0  0  0
   -1.7068    1.3780   -0.1884 C   0  0  0  0  0  0  0  0  0  0  0  0
   -0.7998    2.4215    0.0403 C   0  0  0  0  0  0  0  0  0  0  0  0
    0.5328    2.1536    0.1666 C   0  0  0  0  0  0  0  0  0  0  0  0
    1.0063    0.8289    0.0671 C   0  0  0  0  0  0  0  0  0  0  0  0
    0.0868   -0.2311   -0.1652 C   0  0  0  0  0  0  0  0  0  0  0  0
    0.6012   -1.5434   -0.2596 C   0  0  0  0  0  0  0  0  0  0  0  0
    1.9389   -1.7934   -0.1271 C   0  0  0  0  0  0  0  0  0  0  0  0
    2.8406   -0.7449    0.1057 C   0  0  0  0  0  0  0  0  0  0  0  0
    2.3808    0.5378    0.1980 C   0  0  0  0  0  0  0  0  0  0  0  0
   -3.0771   -0.9521    1.5278 H   0  0  0  0  0  0  0  0  0  0  0  0
   -1.7943   -2.1332    1.2798 H   0  0  0  0  0  0  0  0  0  0  0  0
   -3.4222   -2.4588    0.6722 H   0  0  0  0  0  0  0  0  0  0  0  0
   -3.2279   -0.5615   -0.9168 H   0  0  0  0  0  0  0  0  0  0  0  0
   -1.9621   -1.7517   -1.2069 H   0  0  0  0  0  0  0  0  0  0  0  0
   -2.7574    1.6134   -0.2841 H   0  0  0  0  0  0  0  0  0  0  0  0
   -1.1660    3.4347    0.1155 H   0  0  0  0  0  0  0  0  0  0  0  0
    1.2437    2.9474    0.3448 H   0  0  0  0  0  0  0  0  0  0  0  0
   -0.0704   -2.3675   -0.4402 H   0  0  0  0  0  0  0  0  0  0  0  0
    2.3103   -2.8049   -0.2021 H   0  0  0  0  0  0  0  0  0  0  0  0
    3.8939   -0.9595    0.2079 H   0  0  0  0  0  0  0  0  0  0  0  0
    3.0647    1.3559    0.3740 H   0  0  0  0  0  0  0  0  0  0  0  0
  1  2  1  0  0  0  0
  2  3  1  0  0  0  0
  3  4  2  0  0  0  0
  4  5  4  0  0  0  0
  5  6  2  0  0  0  0
  6  7  4  0  0  0  0
  3  8  4  0  0  0  0
  7  8  4  0  0  0  0
  8  9  4  0  0  0  0
  9 10  2  0  0  0  0
 10 11  4  0  0  0  0
  7 12  4  0  0  0  0
 11 12  2  0  0  0  0
  1 13  1  0  0  0  0
  1 14  1  0  0  0  0
  1 15  1  0  0  0  0
  2 16  1  0  0  0  0
  2 17  1  0  0  0  0
  4 18  1  0  0  0  0
  5 19  1  0  0  0  0
  6 20  1  0  0  0  0
  9 21  1  0  0  0  0
 10 22  1  0  0  0  0
 11 23  1  0  0  0  0
 12 24  1  0  0  0  0
M  END
