 xtb: 6.7.1 (edcfbbe)
          04052510063D

 22 23  0     0  0            999 V2000
    1.5406    1.4006   -1.3996 C   0  0  0  0  0  0  0  0  0  0  0  0
    2.9110    1.5075   -1.5428 C   0  0  0  0  0  0  0  0  0  0  0  0
    3.7487    0.8145   -0.6826 C   0  0  0  0  0  0  0  0  0  0  0  0
    3.2150    0.0240    0.3323 C   0  0  0  0  0  0  0  0  0  0  0  0
    1.8332   -0.0768    0.4675 C   0  0  0  0  0  0  0  0  0  0  0  0
    0.9845    0.6006   -0.4072 C   0  0  0  0  0  0  0  0  0  0  0  0
   -0.4834    0.4797   -0.2783 C   0  0  0  0  0  0  0  0  0  0  0  0
   -1.2435    1.5914    0.0619 C   0  0  0  0  0  0  0  0  0  0  0  0
   -2.6174    1.4885    0.2045 C   0  0  0  0  0  0  0  0  0  0  0  0
   -3.2577    0.2675    0.0016 C   0  0  0  0  0  0  0  0  0  0  0  0
   -2.5045   -0.8472   -0.3611 C   0  0  0  0  0  0  0  0  0  0  0  0
   -1.1234   -0.7395   -0.5041 C   0  0  0  0  0  0  0  0  0  0  0  0
   -0.2195   -2.1187   -0.9986 Cl  0  0  0  0  0  0  0  0  0  0  0  0
   -3.2873   -2.3558   -0.6324 Cl  0  0  0  0  0  0  0  0  0  0  0  0
   -4.9622    0.1287    0.1887 Cl  0  0  0  0  0  0  0  0  0  0  0  0
   -3.5439    2.8701    0.6401 Cl  0  0  0  0  0  0  0  0  0  0  0  0
    1.1783   -1.0179    1.7589 Cl  0  0  0  0  0  0  0  0  0  0  0  0
    4.2555   -0.8239    1.4194 Cl  0  0  0  0  0  0  0  0  0  0  0  0
    5.4607    0.9311   -0.8568 Cl  0  0  0  0  0  0  0  0  0  0  0  0
    0.8845    1.9297   -2.0707 H   0  0  0  0  0  0  0  0  0  0  0  0
    3.3391    2.1216   -2.3171 H   0  0  0  0  0  0  0  0  0  0  0  0
   -0.7577    2.5384    0.2306 H   0  0  0  0  0  0  0  0  0  0  0  0
  1  2  4  0  0  0  0
  2  3  4  0  0  0  0
  3  4  4  0  0  0  0
  4  5  4  0  0  0  0
  1  6  4  0  0  0  0
  5  6  4  0  0  0  0
  6  7  1  0  0  0  0
  7  8  4  0  0  0  0
  8  9  4  0  0  0  0
  9 10  4  0  0  0  0
 10 11  4  0  0  0  0
  7 12  4  0  0  0  0
 11 12  4  0  0  0  0
 12 13  1  0  0  0  0
 11 14  1  0  0  0  0
 10 15  1  0  0  0  0
  9 16  1  0  0  0  0
  5 17  1  0  0  0  0
  4 18  1  0  0  0  0
  3 19  1  0  0  0  0
  1 20  1  0  0  0  0
  2 21  1  0  0  0  0
  8 22  1  0  0  0  0
M  END
