15
 xtb: 6.7.1 (edcfbbe)
C            1.70693685299446        0.39156243966846        0.63245067493709
C            0.89778622143256        0.33818956895271       -0.66204165113945
C           -0.56914703111362       -0.04367649632993       -0.49235560850178
H           -1.04716769770345        0.00361352283789       -1.48279875423670
C           -1.33499046083818        0.85545737446046        0.46487195149242
O           -0.60472032958613       -1.41878455182250       -0.03173567601999
H            2.76089187613750        0.58856410844242        0.41291007293695
H            1.65356858219485       -0.55504832043545        1.17924389207907
H            1.35618904022973        1.18678737195999        1.29746366397431
H            1.35414036580585       -0.38065952739897       -1.35373671141390
H            0.92966321137287        1.31439819239224       -1.16001785289858
H           -0.93245796134870        0.78453300509656        1.48007722052461
H           -1.27662428007151        1.89959613989822        0.13914399363211
H           -2.39182551564630        0.56877498838479        0.49390423853230
H           -1.53097488347303       -1.64153589584696        0.12652420073705
