 xtb: 6.7.1 (edcfbbe)
          04042516103D

 14 13  0     0  0            999 V2000
   -2.1186   -0.4555    0.7109 C   0  0  0  0  0  0  0  0  0  0  0  0
   -1.3426   -0.4062   -0.6089 C   0  0  0  0  0  0  0  0  0  0  0  0
    0.0097    0.2104   -0.3675 C   0  0  0  0  0  0  0  0  0  0  0  0
    0.2945    1.3725   -0.5700 O   0  0  0  0  0  0  0  0  0  0  0  0
    0.8662   -0.6702    0.1365 O   0  0  0  0  0  0  0  0  0  0  0  0
    2.1784   -0.2084    0.4658 C   0  0  0  0  0  0  0  0  0  0  0  0
   -3.1013   -0.8849    0.5416 H   0  0  0  0  0  0  0  0  0  0  0  0
   -1.5874   -1.0654    1.4369 H   0  0  0  0  0  0  0  0  0  0  0  0
   -2.2396    0.5466    1.1154 H   0  0  0  0  0  0  0  0  0  0  0  0
   -1.8758    0.2042   -1.3365 H   0  0  0  0  0  0  0  0  0  0  0  0
   -1.2046   -1.4161   -0.9927 H   0  0  0  0  0  0  0  0  0  0  0  0
    2.7269    0.0296   -0.4462 H   0  0  0  0  0  0  0  0  0  0  0  0
    2.6518   -1.0252    1.0014 H   0  0  0  0  0  0  0  0  0  0  0  0
    2.1153    0.6866    1.0858 H   0  0  0  0  0  0  0  0  0  0  0  0
  1  2  1  0  0  0  0
  2  3  1  0  0  0  0
  3  4  2  0  0  0  0
  3  5  1  0  0  0  0
  5  6  1  0  0  0  0
  1  7  1  0  0  0  0
  1  8  1  0  0  0  0
  1  9  1  0  0  0  0
  2 10  1  0  0  0  0
  2 11  1  0  0  0  0
  6 12  1  0  0  0  0
  6 13  1  0  0  0  0
  6 14  1  0  0  0  0
M  END
