16
 xtb: 6.7.1 (edcfbbe)
C            2.46101088469796       -1.20664227884465        0.00678510727054
C            1.70034986586646        0.08416125847498        0.00020367471201
O            2.28372373988503        1.16677416322444       -0.00556064420108
C            0.21093525041927        0.04257815127389        0.00011896652082
C           -0.51998272888551        1.23474090844310        0.00331906330478
C           -1.90276587260418        1.17226429562087        0.00357974010410
C           -2.51265366344663       -0.07835132668462        0.00028502355792
N           -1.83582268894001       -1.23621369485763       -0.00352213242460
C           -0.49954095842058       -1.16125111526223       -0.00337974227765
H            2.19444042322372       -1.80175065490626        0.88714326404535
H            3.53166093535403       -1.00148560701908        0.01110559584974
H            2.20284846709297       -1.80460043603267       -0.87425839027924
H           -0.00119314019677        2.18717909339436        0.00603916050630
H           -2.50644416629285        2.07295239598833        0.00642605168691
H           -3.59731781752222       -0.15532745628396        0.00043384765262
H            0.02551435508648       -2.11219674439879       -0.00639294750923
