17
 xtb: 6.7.1 (edcfbbe)
C           -2.75820791370292       -0.90408353672264       -0.03013844332461
N           -1.89201814505108        0.25489781714062        0.02478064515052
C           -0.52620050163882        0.18116410561673        0.01254414524239
C            0.15266302765582       -1.05286263422520       -0.05619451481174
C            1.54496338684959       -1.08675719096659       -0.06671873067573
C            2.29940367077472        0.08287215603001       -0.01006352546131
C            1.62875215887820        1.30807547184550        0.05842915099466
C            0.24406970625480        1.36432403311674        0.06978138485280
H           -3.79518155945713       -0.56401155427194       -0.00708330512429
H           -2.60209968618667       -1.57624423447174        0.82476738257890
H           -2.61148885473735       -1.48527620837581       -0.95083244526948
H           -2.31317226591445        1.16716725586605        0.07388058787134
H           -0.40584656471305       -1.98146233775551       -0.10101367723565
H            2.04460266229750       -2.05025181013718       -0.12009345373229
H            3.38353770460866        0.04480705231948       -0.01880249329227
H            2.19467106874124        2.23455413816026        0.10301006070096
H           -0.26625972063097        2.32303354573796        0.12269793097521
