 xtb: 6.7.1 (edcfbbe)
          04032521483D

 11 10  0     0  0            999 V2000
   -2.5134   -0.1984    0.0000 C   0  0  0  0  0  0  0  0  0  0  0  0
   -1.1614    0.3964   -0.0001 C   0  0  0  0  0  0  0  0  0  0  0  0
   -0.0163   -0.2988   -0.0000 C   0  0  0  0  0  0  0  0  0  0  0  0
    1.2726    0.3482   -0.0000 C   0  0  0  0  0  0  0  0  0  0  0  0
    2.3504   -0.2210    0.0000 O   0  0  0  0  0  0  0  0  0  0  0  0
   -3.0639    0.1458    0.8746 H   0  0  0  0  0  0  0  0  0  0  0  0
   -2.4734   -1.2834    0.0004 H   0  0  0  0  0  0  0  0  0  0  0  0
   -3.0635    0.1452   -0.8749 H   0  0  0  0  0  0  0  0  0  0  0  0
   -1.1155    1.4786    0.0006 H   0  0  0  0  0  0  0  0  0  0  0  0
   -0.0111   -1.3798   -0.0001 H   0  0  0  0  0  0  0  0  0  0  0  0
    1.2382    1.4541   -0.0001 H   0  0  0  0  0  0  0  0  0  0  0  0
  1  2  1  0  0  0  0
  2  3  2  0  0  0  0
  3  4  1  0  0  0  0
  4  5  2  0  0  0  0
  1  6  1  0  0  0  0
  1  7  1  0  0  0  0
  1  8  1  0  0  0  0
  2  9  1  0  0  0  0
  3 10  1  0  0  0  0
  4 11  1  0  0  0  0
M  END
