 xtb: 6.7.1 (edcfbbe)
          04062501273D

 25 25  0     0  0            999 V2000
   -4.2156   -0.2984   -0.1354 C   0  0  0  0  0  0  0  0  0  0  0  0
   -2.7328   -0.1163   -0.0343 C   0  0  0  0  0  0  0  0  0  0  0  0
   -2.0028   -0.7479    0.9655 C   0  0  0  0  0  0  0  0  0  0  0  0
   -0.6358   -0.5664    1.0706 C   0  0  0  0  0  0  0  0  0  0  0  0
    0.0308    0.2533    0.1680 C   0  0  0  0  0  0  0  0  0  0  0  0
   -0.6927    0.8996   -0.8268 C   0  0  0  0  0  0  0  0  0  0  0  0
   -2.0587    0.7103   -0.9262 C   0  0  0  0  0  0  0  0  0  0  0  0
    1.4981    0.5110    0.3203 C   0  0  0  0  0  0  0  0  0  0  0  0
    1.8957    1.4850    0.9689 O   0  0  0  0  0  0  0  0  0  0  0  0
    2.3327   -0.3532   -0.2693 N   0  0  0  0  0  0  0  0  0  0  0  0
    3.7650   -0.1788   -0.1638 C   0  0  0  0  0  0  0  0  0  0  0  0
    1.9124   -1.4924   -1.0510 C   0  0  0  0  0  0  0  0  0  0  0  0
   -4.7221    0.5113    0.3894 H   0  0  0  0  0  0  0  0  0  0  0  0
   -4.5366   -0.2777   -1.1737 H   0  0  0  0  0  0  0  0  0  0  0  0
   -4.5221   -1.2383    0.3153 H   0  0  0  0  0  0  0  0  0  0  0  0
   -2.5090   -1.3892    1.6717 H   0  0  0  0  0  0  0  0  0  0  0  0
   -0.0798   -1.0593    1.8546 H   0  0  0  0  0  0  0  0  0  0  0  0
   -0.1800    1.5494   -1.5209 H   0  0  0  0  0  0  0  0  0  0  0  0
   -2.6097    1.2138   -1.7066 H   0  0  0  0  0  0  0  0  0  0  0  0
    4.2003   -0.0585   -1.1563 H   0  0  0  0  0  0  0  0  0  0  0  0
    4.2115   -1.0464    0.3232 H   0  0  0  0  0  0  0  0  0  0  0  0
    3.9586    0.7123    0.4300 H   0  0  0  0  0  0  0  0  0  0  0  0
    0.8284   -1.5491   -1.0847 H   0  0  0  0  0  0  0  0  0  0  0  0
    2.3079   -2.4073   -0.6065 H   0  0  0  0  0  0  0  0  0  0  0  0
    2.2996   -1.4007   -2.0673 H   0  0  0  0  0  0  0  0  0  0  0  0
  1  2  1  0  0  0  0
  2  3  4  0  0  0  0
  3  4  4  0  0  0  0
  4  5  4  0  0  0  0
  5  6  4  0  0  0  0
  2  7  4  0  0  0  0
  6  7  4  0  0  0  0
  5  8  1  0  0  0  0
  8  9  2  0  0  0  0
  8 10  4  0  0  0  0
 10 11  1  0  0  0  0
 10 12  1  0  0  0  0
  1 13  1  0  0  0  0
  1 14  1  0  0  0  0
  1 15  1  0  0  0  0
  3 16  1  0  0  0  0
  4 17  1  0  0  0  0
  6 18  1  0  0  0  0
  7 19  1  0  0  0  0
 11 20  1  0  0  0  0
 11 21  1  0  0  0  0
 11 22  1  0  0  0  0
 12 23  1  0  0  0  0
 12 24  1  0  0  0  0
 12 25  1  0  0  0  0
M  END
