 xtb: 6.7.1 (edcfbbe)
          04042519073D

 15 14  0     0  0            999 V2000
    1.3246   -1.1473    0.3374 C   0  0  0  0  0  0  0  0  0  0  0  0
    0.4605   -0.1658   -0.4626 C   0  0  0  0  0  0  0  0  0  0  0  0
    0.8940    1.2704   -0.1864 C   0  0  0  0  0  0  0  0  0  0  0  0
   -0.9879   -0.4303   -0.1621 C   0  0  0  0  0  0  0  0  0  0  0  0
   -1.8651    0.4178    0.3409 C   0  0  0  0  0  0  0  0  0  0  0  0
    1.1955   -0.9748    1.4037 H   0  0  0  0  0  0  0  0  0  0  0  0
    2.3750   -1.0154    0.0897 H   0  0  0  0  0  0  0  0  0  0  0  0
    1.0439   -2.1748    0.1181 H   0  0  0  0  0  0  0  0  0  0  0  0
    0.6134   -0.3751   -1.5297 H   0  0  0  0  0  0  0  0  0  0  0  0
    0.7805    1.5065    0.8691 H   0  0  0  0  0  0  0  0  0  0  0  0
    1.9398    1.3993   -0.4553 H   0  0  0  0  0  0  0  0  0  0  0  0
    0.3011    1.9703   -0.7698 H   0  0  0  0  0  0  0  0  0  0  0  0
   -1.3002   -1.4433   -0.3877 H   0  0  0  0  0  0  0  0  0  0  0  0
   -2.8849    0.1250    0.5267 H   0  0  0  0  0  0  0  0  0  0  0  0
   -1.6167    1.4354    0.5869 H   0  0  0  0  0  0  0  0  0  0  0  0
  1  2  1  0  0  0  0
  2  3  1  0  0  0  0
  2  4  1  0  0  0  0
  4  5  2  0  0  0  0
  1  6  1  0  0  0  0
  1  7  1  0  0  0  0
  1  8  1  0  0  0  0
  2  9  1  0  0  0  0
  3 10  1  0  0  0  0
  3 11  1  0  0  0  0
  3 12  1  0  0  0  0
  4 13  1  0  0  0  0
  5 14  1  0  0  0  0
  5 15  1  0  0  0  0
M  END
