 xtb: 6.7.1 (edcfbbe)
          04032521163D

 19 19  0     0  0            999 V2000
    2.4742   -0.0223   -0.2327 C   0  0  0  0  0  0  0  0  0  0  0  0
    1.0123    0.0934    0.0573 C   0  0  0  0  0  0  0  0  0  0  0  0
    0.3065    1.2069   -0.0885 C   0  0  0  0  0  0  0  0  0  0  0  0
   -1.1492    1.2496    0.2635 C   0  0  0  0  0  0  0  0  0  0  0  0
   -1.9165   -0.0375   -0.1108 C   0  0  0  0  0  0  0  0  0  0  0  0
   -1.0019   -1.2412   -0.3559 C   0  0  0  0  0  0  0  0  0  0  0  0
    0.2754   -1.1458    0.4813 C   0  0  0  0  0  0  0  0  0  0  0  0
    2.6433   -0.7363   -1.0384 H   0  0  0  0  0  0  0  0  0  0  0  0
    3.0029   -0.3843    0.6484 H   0  0  0  0  0  0  0  0  0  0  0  0
    2.8908    0.9389   -0.5232 H   0  0  0  0  0  0  0  0  0  0  0  0
    0.7665    2.1283   -0.4162 H   0  0  0  0  0  0  0  0  0  0  0  0
   -1.2238    1.3976    1.3461 H   0  0  0  0  0  0  0  0  0  0  0  0
   -1.6210    2.1126   -0.2081 H   0  0  0  0  0  0  0  0  0  0  0  0
   -2.6154   -0.2714    0.6940 H   0  0  0  0  0  0  0  0  0  0  0  0
   -2.5078    0.1420   -1.0097 H   0  0  0  0  0  0  0  0  0  0  0  0
   -1.5380   -2.1638   -0.1287 H   0  0  0  0  0  0  0  0  0  0  0  0
   -0.7127   -1.2738   -1.4086 H   0  0  0  0  0  0  0  0  0  0  0  0
    0.0107   -1.0843    1.5404 H   0  0  0  0  0  0  0  0  0  0  0  0
    0.8928   -2.0327    0.3351 H   0  0  0  0  0  0  0  0  0  0  0  0
  1  2  1  0  0  0  0
  2  3  2  0  0  0  0
  3  4  1  0  0  0  0
  4  5  1  0  0  0  0
  5  6  1  0  0  0  0
  2  7  1  0  0  0  0
  6  7  1  0  0  0  0
  1  8  1  0  0  0  0
  1  9  1  0  0  0  0
  1 10  1  0  0  0  0
  3 11  1  0  0  0  0
  4 12  1  0  0  0  0
  4 13  1  0  0  0  0
  5 14  1  0  0  0  0
  5 15  1  0  0  0  0
  6 16  1  0  0  0  0
  6 17  1  0  0  0  0
  7 18  1  0  0  0  0
  7 19  1  0  0  0  0
M  END
