 xtb: 6.7.1 (edcfbbe)
          04062518003D

 24 24  0     0  0            999 V2000
   -2.1729   -0.9941   -0.4596 C   0  0  0  0  0  0  0  0  0  0  0  0
   -1.1917   -0.2028    0.4240 C   0  0  0  0  0  0  0  0  0  0  0  0
   -1.7253    0.1578    1.3133 H   0  0  0  0  0  0  0  0  0  0  0  0
   -0.6252    0.9993   -0.3489 C   0  0  0  0  0  0  0  0  0  0  0  0
   -0.5281    0.7499   -1.4118 H   0  0  0  0  0  0  0  0  0  0  0  0
    0.7708    1.3317    0.1947 C   0  0  0  0  0  0  0  0  0  0  0  0
    0.7218    1.4601    1.2893 H   0  0  0  0  0  0  0  0  0  0  0  0
    1.7029    0.1543   -0.1139 C   0  0  0  0  0  0  0  0  0  0  0  0
    1.9200    0.1608   -1.1922 H   0  0  0  0  0  0  0  0  0  0  0  0
    1.0045   -1.1817    0.2141 C   0  0  0  0  0  0  0  0  0  0  0  0
    1.6727   -1.7480    0.8786 H   0  0  0  0  0  0  0  0  0  0  0  0
   -0.1622   -1.0212    0.9769 O   0  0  0  0  0  0  0  0  0  0  0  0
    0.7735   -1.8548   -0.9823 O   0  0  0  0  0  0  0  0  0  0  0  0
    2.8908    0.2150    0.6304 O   0  0  0  0  0  0  0  0  0  0  0  0
    1.2933    2.4948   -0.3980 O   0  0  0  0  0  0  0  0  0  0  0  0
   -1.4706    2.1186   -0.3081 O   0  0  0  0  0  0  0  0  0  0  0  0
   -2.7495   -2.0969    0.1900 O   0  0  0  0  0  0  0  0  0  0  0  0
   -1.6413   -1.3991   -1.3224 H   0  0  0  0  0  0  0  0  0  0  0  0
   -2.9416   -0.2937   -0.8132 H   0  0  0  0  0  0  0  0  0  0  0  0
    0.4901   -2.7642   -0.7995 H   0  0  0  0  0  0  0  0  0  0  0  0
    3.3309    1.0578    0.4403 H   0  0  0  0  0  0  0  0  0  0  0  0
    0.5529    3.0790   -0.6306 H   0  0  0  0  0  0  0  0  0  0  0  0
   -1.6589    2.3598    0.6122 H   0  0  0  0  0  0  0  0  0  0  0  0
   -3.2298   -1.8000    0.9757 H   0  0  0  0  0  0  0  0  0  0  0  0
  1  2  1  0  0  0  0
  2  3  1  0  0  0  0
  2  4  1  0  0  0  0
  4  5  1  0  0  0  0
  4  6  1  0  0  0  0
  6  7  1  0  0  0  0
  6  8  1  0  0  0  0
  8  9  1  0  0  0  0
  8 10  1  0  0  0  0
 10 11  1  0  0  0  0
  2 12  1  0  0  0  0
 10 12  1  0  0  0  0
 10 13  1  0  0  0  0
  8 14  1  0  0  0  0
  6 15  1  0  0  0  0
  4 16  1  0  0  0  0
  1 17  1  0  0  0  0
  1 18  1  0  0  0  0
  1 19  1  0  0  0  0
 13 20  1  0  0  0  0
 14 21  1  0  0  0  0
 15 22  1  0  0  0  0
 16 23  1  0  0  0  0
 17 24  1  0  0  0  0
M  END
