 xtb: 6.7.1 (edcfbbe)
          04032522203D

 11 10  0     0  0            999 V2000
   -2.9021   -0.0580    0.0019 C   0  0  0  0  0  0  0  0  0  0  0  0
   -1.6632    0.6643    0.0004 O   0  0  0  0  0  0  0  0  0  0  0  0
   -0.5462   -0.0436   -0.0015 C   0  0  0  0  0  0  0  0  0  0  0  0
   -0.5026   -1.2503   -0.0017 O   0  0  0  0  0  0  0  0  0  0  0  0
    0.6530    0.8820   -0.0037 C   0  0  0  0  0  0  0  0  0  0  0  0
    2.1608   -0.0666    0.0014 Cl  0  0  0  0  0  0  0  0  0  0  0  0
   -3.6780    0.7006    0.0034 H   0  0  0  0  0  0  0  0  0  0  0  0
   -2.9650   -0.6874    0.8897 H   0  0  0  0  0  0  0  0  0  0  0  0
   -2.9677   -0.6867   -0.8862 H   0  0  0  0  0  0  0  0  0  0  0  0
    0.6402    1.5116    0.8855 H   0  0  0  0  0  0  0  0  0  0  0  0
    0.6421    1.5044   -0.8981 H   0  0  0  0  0  0  0  0  0  0  0  0
  1  2  1  0  0  0  0
  2  3  1  0  0  0  0
  3  4  2  0  0  0  0
  3  5  1  0  0  0  0
  5  6  1  0  0  0  0
  1  7  1  0  0  0  0
  1  8  1  0  0  0  0
  1  9  1  0  0  0  0
  5 10  1  0  0  0  0
  5 11  1  0  0  0  0
M  END
