 xtb: 6.7.1 (edcfbbe)
          04062518003D

 24 24  0     0  0            999 V2000
   -2.1292   -1.1806   -0.1804 C   0  0  0  0  0  0  0  0  0  0  0  0
   -1.2524   -0.3344    0.7521 C   0  0  0  0  0  0  0  0  0  0  0  0
   -1.8323   -0.1325    1.6589 H   0  0  0  0  0  0  0  0  0  0  0  0
   -0.8988    1.0274    0.1230 C   0  0  0  0  0  0  0  0  0  0  0  0
   -1.1256    1.0162   -0.9538 H   0  0  0  0  0  0  0  0  0  0  0  0
    0.6035    1.2843    0.2714 C   0  0  0  0  0  0  0  0  0  0  0  0
    0.8498    1.3565    1.3438 H   0  0  0  0  0  0  0  0  0  0  0  0
    1.3584    0.1041   -0.3539 C   0  0  0  0  0  0  0  0  0  0  0  0
    1.0588    0.0164   -1.4049 H   0  0  0  0  0  0  0  0  0  0  0  0
    0.9901   -1.2035    0.3863 C   0  0  0  0  0  0  0  0  0  0  0  0
    1.8048   -1.4888    1.0644 H   0  0  0  0  0  0  0  0  0  0  0  0
   -0.1130   -1.0268    1.2482 O   0  0  0  0  0  0  0  0  0  0  0  0
    0.8383   -2.2796   -0.4742 O   0  0  0  0  0  0  0  0  0  0  0  0
    2.7410    0.3527   -0.3881 O   0  0  0  0  0  0  0  0  0  0  0  0
    0.9173    2.4935   -0.3759 O   0  0  0  0  0  0  0  0  0  0  0  0
   -1.6690    2.0135    0.7633 O   0  0  0  0  0  0  0  0  0  0  0  0
   -1.5231   -1.3094   -1.4548 O   0  0  0  0  0  0  0  0  0  0  0  0
   -3.0942   -0.6727   -0.2677 H   0  0  0  0  0  0  0  0  0  0  0  0
   -2.2685   -2.1656    0.2793 H   0  0  0  0  0  0  0  0  0  0  0  0
    0.0715   -2.1045   -1.0619 H   0  0  0  0  0  0  0  0  0  0  0  0
    3.1133    0.3030    0.5047 H   0  0  0  0  0  0  0  0  0  0  0  0
    1.8505    2.4646   -0.6407 H   0  0  0  0  0  0  0  0  0  0  0  0
   -1.3667    2.8819    0.4562 H   0  0  0  0  0  0  0  0  0  0  0  0
   -2.1458   -1.7398   -2.0586 H   0  0  0  0  0  0  0  0  0  0  0  0
  1  2  1  0  0  0  0
  2  3  1  0  0  0  0
  2  4  1  0  0  0  0
  4  5  1  0  0  0  0
  4  6  1  0  0  0  0
  6  7  1  0  0  0  0
  6  8  1  0  0  0  0
  8  9  1  0  0  0  0
  8 10  1  0  0  0  0
 10 11  1  0  0  0  0
  2 12  1  0  0  0  0
 10 12  1  0  0  0  0
 10 13  1  0  0  0  0
  8 14  1  0  0  0  0
  6 15  1  0  0  0  0
  4 16  1  0  0  0  0
  1 17  1  0  0  0  0
  1 18  1  0  0  0  0
  1 19  1  0  0  0  0
 13 20  1  0  0  0  0
 14 21  1  0  0  0  0
 15 22  1  0  0  0  0
 16 23  1  0  0  0  0
 17 24  1  0  0  0  0
M  END
