 xtb: 6.7.1 (edcfbbe)
          04052500053D

 17 17  0     0  0            999 V2000
   -2.7365   -0.1777   -0.6897 C   0  0  0  0  0  0  0  0  0  0  0  0
   -1.9309    0.2060    0.5535 C   0  0  0  0  0  0  0  0  0  0  0  0
   -0.4578    0.0811    0.2948 C   0  0  0  0  0  0  0  0  0  0  0  0
    0.1582   -1.1680    0.2395 C   0  0  0  0  0  0  0  0  0  0  0  0
    1.5128   -1.2383   -0.0295 C   0  0  0  0  0  0  0  0  0  0  0  0
    2.2141   -0.0589   -0.2346 C   0  0  0  0  0  0  0  0  0  0  0  0
    1.5150    1.1339   -0.1559 C   0  0  0  0  0  0  0  0  0  0  0  0
    0.2184    1.2081    0.1008 N   0  0  0  0  0  0  0  0  0  0  0  0
   -2.5274   -1.2043   -0.9812 H   0  0  0  0  0  0  0  0  0  0  0  0
   -2.4786    0.4752   -1.5199 H   0  0  0  0  0  0  0  0  0  0  0  0
   -3.8001   -0.0822   -0.4894 H   0  0  0  0  0  0  0  0  0  0  0  0
   -2.2102   -0.4474    1.3820 H   0  0  0  0  0  0  0  0  0  0  0  0
   -2.1492    1.2380    0.8259 H   0  0  0  0  0  0  0  0  0  0  0  0
   -0.4205   -2.0627    0.4098 H   0  0  0  0  0  0  0  0  0  0  0  0
    2.0157   -2.1930   -0.0768 H   0  0  0  0  0  0  0  0  0  0  0  0
    3.2712   -0.0644   -0.4463 H   0  0  0  0  0  0  0  0  0  0  0  0
    2.0109    2.0845   -0.3034 H   0  0  0  0  0  0  0  0  0  0  0  0
  1  2  1  0  0  0  0
  2  3  1  0  0  0  0
  3  4  4  0  0  0  0
  4  5  4  0  0  0  0
  5  6  4  0  0  0  0
  6  7  4  0  0  0  0
  3  8  4  0  0  0  0
  7  8  4  0  0  0  0
  1  9  1  0  0  0  0
  1 10  1  0  0  0  0
  1 11  1  0  0  0  0
  2 12  1  0  0  0  0
  2 13  1  0  0  0  0
  4 14  1  0  0  0  0
  5 15  1  0  0  0  0
  6 16  1  0  0  0  0
  7 17  1  0  0  0  0
M  END
