 xtb: 6.7.1 (edcfbbe)
          04052508533D

 21 21  0     0  0            999 V2000
   -2.6353   -0.6878   -0.7490 C   0  0  0  0  0  0  0  0  0  0  0  0
   -1.8777   -0.4507    0.5599 C   0  0  0  0  0  0  0  0  0  0  0  0
   -0.4038   -0.2946    0.3015 C   0  0  0  0  0  0  0  0  0  0  0  0
    0.3916   -1.4327    0.2549 C   0  0  0  0  0  0  0  0  0  0  0  0
    1.7453   -1.3559   -0.0165 C   0  0  0  0  0  0  0  0  0  0  0  0
    2.3240   -0.1205   -0.2459 C   0  0  0  0  0  0  0  0  0  0  0  0
    1.5414    1.0190   -0.2009 C   0  0  0  0  0  0  0  0  0  0  0  0
    0.1796    0.9537    0.0673 C   0  0  0  0  0  0  0  0  0  0  0  0
   -0.6262    2.2186    0.1136 C   0  0  0  0  0  0  0  0  0  0  0  0
   -3.6994   -0.8000   -0.5561 H   0  0  0  0  0  0  0  0  0  0  0  0
   -2.2724   -1.5903   -1.2356 H   0  0  0  0  0  0  0  0  0  0  0  0
   -2.4924    0.1453   -1.4331 H   0  0  0  0  0  0  0  0  0  0  0  0
   -2.0374   -1.3066    1.2190 H   0  0  0  0  0  0  0  0  0  0  0  0
   -2.2766    0.4343    1.0550 H   0  0  0  0  0  0  0  0  0  0  0  0
   -0.0619   -2.3970    0.4372 H   0  0  0  0  0  0  0  0  0  0  0  0
    2.3445   -2.2540   -0.0472 H   0  0  0  0  0  0  0  0  0  0  0  0
    3.3802   -0.0435   -0.4580 H   0  0  0  0  0  0  0  0  0  0  0  0
    1.9973    1.9828   -0.3797 H   0  0  0  0  0  0  0  0  0  0  0  0
   -1.4686    2.1708   -0.5731 H   0  0  0  0  0  0  0  0  0  0  0  0
   -1.0181    2.3844    1.1165 H   0  0  0  0  0  0  0  0  0  0  0  0
   -0.0083    3.0709   -0.1565 H   0  0  0  0  0  0  0  0  0  0  0  0
  1  2  1  0  0  0  0
  2  3  1  0  0  0  0
  3  4  4  0  0  0  0
  4  5  4  0  0  0  0
  5  6  4  0  0  0  0
  6  7  4  0  0  0  0
  3  8  4  0  0  0  0
  7  8  4  0  0  0  0
  8  9  1  0  0  0  0
  1 10  1  0  0  0  0
  1 11  1  0  0  0  0
  1 12  1  0  0  0  0
  2 13  1  0  0  0  0
  2 14  1  0  0  0  0
  4 15  1  0  0  0  0
  5 16  1  0  0  0  0
  6 17  1  0  0  0  0
  7 18  1  0  0  0  0
  9 19  1  0  0  0  0
  9 20  1  0  0  0  0
  9 21  1  0  0  0  0
M  END
