16
 xtb: 6.7.1 (edcfbbe)
C            1.27474160919097        1.09564407460886        0.79837082551225
C            0.70610053289605        0.27923663941965       -0.37587630746688
C            1.51256432117658       -1.00087790771635       -0.59662398074139
C           -0.76215967985617        0.02616907334997       -0.09895249518015
O           -1.62138695715255        0.76776986215279       -0.57126102059003
C           -1.13472360784263       -1.12735467594975        0.78338354312858
H            2.32231746449529        1.33935898375784        0.59709400880167
H            0.72449532074662        2.03096916022407        0.93721362924241
H            1.23193473183215        0.52292042974030        1.73047631056837
H            0.74518410560376        0.89991601464165       -1.27820983232075
H            1.55843824526920       -1.60833394867778        0.31274886117557
H            2.53819943171119       -0.74058827930749       -0.87574705468573
H            1.08688277172665       -1.61091896089110       -1.39944761992120
H           -1.01958364181277       -2.05561470427366        0.21007626002705
H           -2.17140283855829       -1.03918496811417        1.11165538467260
H           -0.46349791535521       -1.20401024274621        1.64375869937842
