 xtb: 6.7.1 (edcfbbe)
          04042519053D

 14 15  0     0  0            999 V2000
   -1.2725    0.0002    0.0001 C   0  0  0  0  0  0  0  0  0  0  0  0
   -0.5764   -1.2163    0.0008 C   0  0  0  0  0  0  0  0  0  0  0  0
    0.8203   -1.2107   -0.0107 C   0  0  0  0  0  0  0  0  0  0  0  0
    1.5176   -0.0002   -0.0001 C   0  0  0  0  0  0  0  0  0  0  0  0
    0.8206    1.2106    0.0107 C   0  0  0  0  0  0  0  0  0  0  0  0
   -0.5761    1.2165   -0.0006 C   0  0  0  0  0  0  0  0  0  0  0  0
   -1.3987    2.7185    0.0410 Cl  0  0  0  0  0  0  0  0  0  0  0  0
    1.6814    2.6857    0.0342 Cl  0  0  0  0  0  0  0  0  0  0  0  0
    3.2202   -0.0004   -0.0002 Cl  0  0  0  0  0  0  0  0  0  0  0  0
    1.6808   -2.6861   -0.0342 Cl  0  0  0  0  0  0  0  0  0  0  0  0
   -1.3993   -2.7181   -0.0407 Cl  0  0  0  0  0  0  0  0  0  0  0  0
   -2.7172    0.0003   -0.0000 N   0  0  0  0  0  0  0  0  0  0  0  0
   -3.2786   -0.8215    0.6871 O   0  0  0  0  0  0  0  0  0  0  0  0
   -3.2784    0.8220   -0.6872 O   0  0  0  0  0  0  0  0  0  0  0  0
  1  2  4  0  0  0  0
  2  3  4  0  0  0  0
  3  4  4  0  0  0  0
  4  5  4  0  0  0  0
  1  6  4  0  0  0  0
  5  6  4  0  0  0  0
  6  7  1  0  0  0  0
  5  8  1  0  0  0  0
  4  9  1  0  0  0  0
  3 10  1  0  0  0  0
  2 11  1  0  0  0  0
  1 12  1  0  0  0  0
 12 13  4  0  0  0  0
 12 14  4  0  0  0  0
 13 14  1  0  0  0  0
M  END
