 xtb: 6.7.1 (edcfbbe)
          04062518493D

 24 24  0     0  0            999 V2000
   -2.3910   -1.1378   -0.3624 C   0  0  0  0  0  0  0  0  0  0  0  0
   -1.0794   -0.6153    0.2333 C   0  0  0  0  0  0  0  0  0  0  0  0
   -1.1500   -0.6137    1.3336 H   0  0  0  0  0  0  0  0  0  0  0  0
   -0.7855    0.8307   -0.2136 C   0  0  0  0  0  0  0  0  0  0  0  0
   -0.8650    0.9008   -1.3104 H   0  0  0  0  0  0  0  0  0  0  0  0
    0.6404    1.2417    0.1764 C   0  0  0  0  0  0  0  0  0  0  0  0
    0.6725    1.3679    1.2697 H   0  0  0  0  0  0  0  0  0  0  0  0
    1.6571    0.1650   -0.2205 C   0  0  0  0  0  0  0  0  0  0  0  0
    1.7034    0.1035   -1.3180 H   0  0  0  0  0  0  0  0  0  0  0  0
    1.2049   -1.2036    0.3062 C   0  0  0  0  0  0  0  0  0  0  0  0
    1.1751   -1.1677    1.4157 H   0  0  0  0  0  0  0  0  0  0  0  0
   -0.0783   -1.5215   -0.1830 O   0  0  0  0  0  0  0  0  0  0  0  0
    2.0977   -2.1537   -0.1442 O   0  0  0  0  0  0  0  0  0  0  0  0
    2.9006    0.5376    0.3148 O   0  0  0  0  0  0  0  0  0  0  0  0
    0.9354    2.4574   -0.4607 O   0  0  0  0  0  0  0  0  0  0  0  0
   -1.6631    1.7344    0.4044 O   0  0  0  0  0  0  0  0  0  0  0  0
   -3.4594   -0.3425    0.0941 O   0  0  0  0  0  0  0  0  0  0  0  0
   -2.5091   -2.1814   -0.0491 H   0  0  0  0  0  0  0  0  0  0  0  0
   -2.3079   -1.1037   -1.4553 H   0  0  0  0  0  0  0  0  0  0  0  0
    1.7717   -3.0436    0.0622 H   0  0  0  0  0  0  0  0  0  0  0  0
    3.5595   -0.1320    0.0774 H   0  0  0  0  0  0  0  0  0  0  0  0
    1.8276    2.7290   -0.1964 H   0  0  0  0  0  0  0  0  0  0  0  0
   -2.5711    1.3948    0.3060 H   0  0  0  0  0  0  0  0  0  0  0  0
   -4.2898   -0.6745   -0.2764 H   0  0  0  0  0  0  0  0  0  0  0  0
  1  2  1  0  0  0  0
  2  3  1  0  0  0  0
  2  4  1  0  0  0  0
  4  5  1  0  0  0  0
  4  6  1  0  0  0  0
  6  7  1  0  0  0  0
  6  8  1  0  0  0  0
  8  9  1  0  0  0  0
  8 10  1  0  0  0  0
 10 11  1  0  0  0  0
  2 12  1  0  0  0  0
 10 12  1  0  0  0  0
 10 13  1  0  0  0  0
  8 14  1  0  0  0  0
  6 15  1  0  0  0  0
  4 16  1  0  0  0  0
  1 17  1  0  0  0  0
  1 18  1  0  0  0  0
  1 19  1  0  0  0  0
 13 20  1  0  0  0  0
 14 21  1  0  0  0  0
 15 22  1  0  0  0  0
 16 23  1  0  0  0  0
 17 24  1  0  0  0  0
M  END
