 xtb: 6.7.1 (edcfbbe)
          04052508553D

 20 20  0     0  0            999 V2000
   -3.0633    1.1878    0.0392 C   0  0  0  0  0  0  0  0  0  0  0  0
   -1.7984    0.3842    0.0389 C   0  0  0  0  0  0  0  0  0  0  0  0
   -1.8128   -0.9858   -0.1773 C   0  0  0  0  0  0  0  0  0  0  0  0
   -0.6391   -1.7177   -0.1915 C   0  0  0  0  0  0  0  0  0  0  0  0
    0.5865   -1.0968    0.0066 C   0  0  0  0  0  0  0  0  0  0  0  0
    0.6116    0.2854    0.2331 C   0  0  0  0  0  0  0  0  0  0  0  0
   -0.5720    1.0043    0.2423 C   0  0  0  0  0  0  0  0  0  0  0  0
    1.8252    0.9107    0.4915 O   0  0  0  0  0  0  0  0  0  0  0  0
    2.3294    1.6807   -0.5870 C   0  0  0  0  0  0  0  0  0  0  0  0
    1.7662   -1.7759   -0.0137 O   0  0  0  0  0  0  0  0  0  0  0  0
   -3.9267    0.5472    0.1948 H   0  0  0  0  0  0  0  0  0  0  0  0
   -3.0366    1.9437    0.8201 H   0  0  0  0  0  0  0  0  0  0  0  0
   -3.1820    1.6965   -0.9169 H   0  0  0  0  0  0  0  0  0  0  0  0
   -2.7523   -1.4933   -0.3353 H   0  0  0  0  0  0  0  0  0  0  0  0
   -0.6726   -2.7839   -0.3618 H   0  0  0  0  0  0  0  0  0  0  0  0
   -0.5259    2.0678    0.4253 H   0  0  0  0  0  0  0  0  0  0  0  0
    1.6082    2.4397   -0.9037 H   0  0  0  0  0  0  0  0  0  0  0  0
    2.5769    1.0383   -1.4382 H   0  0  0  0  0  0  0  0  0  0  0  0
    3.2313    2.1588   -0.2126 H   0  0  0  0  0  0  0  0  0  0  0  0
    1.6041   -2.7233   -0.1397 H   0  0  0  0  0  0  0  0  0  0  0  0
  1  2  1  0  0  0  0
  2  3  4  0  0  0  0
  3  4  4  0  0  0  0
  4  5  4  0  0  0  0
  5  6  4  0  0  0  0
  2  7  4  0  0  0  0
  6  7  4  0  0  0  0
  6  8  1  0  0  0  0
  8  9  1  0  0  0  0
  5 10  1  0  0  0  0
  1 11  1  0  0  0  0
  1 12  1  0  0  0  0
  1 13  1  0  0  0  0
  3 14  1  0  0  0  0
  4 15  1  0  0  0  0
  7 16  1  0  0  0  0
  9 17  1  0  0  0  0
  9 18  1  0  0  0  0
  9 19  1  0  0  0  0
 10 20  1  0  0  0  0
M  END
