 xtb: 6.7.1 (edcfbbe)
          04062511443D

 31 31  0     0  0            999 V2000
    3.6879    0.3738    0.0482 C   0  0  0  0  0  0  0  0  0  0  0  0
    2.2133    0.3081   -0.3406 C   0  0  0  0  0  0  0  0  0  0  0  0
    2.1351    0.3681   -1.4325 H   0  0  0  0  0  0  0  0  0  0  0  0
    1.4290    1.4712    0.2646 C   0  0  0  0  0  0  0  0  0  0  0  0
   -0.0420    1.3895   -0.1306 C   0  0  0  0  0  0  0  0  0  0  0  0
   -0.6673    0.0787    0.3467 C   0  0  0  0  0  0  0  0  0  0  0  0
   -0.5406    0.0043    1.4331 H   0  0  0  0  0  0  0  0  0  0  0  0
    0.1085   -1.1015   -0.2583 C   0  0  0  0  0  0  0  0  0  0  0  0
    0.0133   -1.0716   -1.3562 H   0  0  0  0  0  0  0  0  0  0  0  0
    1.5914   -1.0106    0.1155 C   0  0  0  0  0  0  0  0  0  0  0  0
   -0.4624   -2.3060    0.2273 O   0  0  0  0  0  0  0  0  0  0  0  0
   -2.1808   -0.0306    0.0677 C   0  0  0  0  0  0  0  0  0  0  0  0
   -2.9813    0.8429    1.0330 C   0  0  0  0  0  0  0  0  0  0  0  0
   -2.5654    0.3069   -1.3719 C   0  0  0  0  0  0  0  0  0  0  0  0
    4.1283    1.3083   -0.2905 H   0  0  0  0  0  0  0  0  0  0  0  0
    3.7974    0.3141    1.1287 H   0  0  0  0  0  0  0  0  0  0  0  0
    4.2398   -0.4492   -0.3994 H   0  0  0  0  0  0  0  0  0  0  0  0
    1.5190    1.4393    1.3527 H   0  0  0  0  0  0  0  0  0  0  0  0
    1.8499    2.4181   -0.0793 H   0  0  0  0  0  0  0  0  0  0  0  0
   -0.5835    2.2308    0.3025 H   0  0  0  0  0  0  0  0  0  0  0  0
   -0.1193    1.4565   -1.2169 H   0  0  0  0  0  0  0  0  0  0  0  0
    1.6776   -1.1016    1.2011 H   0  0  0  0  0  0  0  0  0  0  0  0
    2.1307   -1.8476   -0.3359 H   0  0  0  0  0  0  0  0  0  0  0  0
    0.0448   -3.0549   -0.1126 H   0  0  0  0  0  0  0  0  0  0  0  0
   -2.4489   -1.0757    0.2574 H   0  0  0  0  0  0  0  0  0  0  0  0
   -4.0466    0.6887    0.8787 H   0  0  0  0  0  0  0  0  0  0  0  0
   -2.7653    1.8966    0.8736 H   0  0  0  0  0  0  0  0  0  0  0  0
   -2.7456    0.5929    2.0647 H   0  0  0  0  0  0  0  0  0  0  0  0
   -2.4203    1.3649   -1.5748 H   0  0  0  0  0  0  0  0  0  0  0  0
   -3.6152    0.0726   -1.5331 H   0  0  0  0  0  0  0  0  0  0  0  0
   -1.9793   -0.2709   -2.0816 H   0  0  0  0  0  0  0  0  0  0  0  0
  1  2  1  0  0  0  0
  2  3  1  0  0  0  0
  2  4  1  0  0  0  0
  4  5  1  0  0  0  0
  5  6  1  0  0  0  0
  6  7  1  0  0  0  0
  6  8  1  0  0  0  0
  8  9  1  0  0  0  0
  2 10  1  0  0  0  0
  8 10  1  0  0  0  0
  8 11  1  0  0  0  0
  6 12  1  0  0  0  0
 12 13  1  0  0  0  0
 12 14  1  0  0  0  0
  1 15  1  0  0  0  0
  1 16  1  0  0  0  0
  1 17  1  0  0  0  0
  4 18  1  0  0  0  0
  4 19  1  0  0  0  0
  5 20  1  0  0  0  0
  5 21  1  0  0  0  0
 10 22  1  0  0  0  0
 10 23  1  0  0  0  0
 11 24  1  0  0  0  0
 12 25  1  0  0  0  0
 13 26  1  0  0  0  0
 13 27  1  0  0  0  0
 13 28  1  0  0  0  0
 14 29  1  0  0  0  0
 14 30  1  0  0  0  0
 14 31  1  0  0  0  0
M  END
