 xtb: 6.7.1 (edcfbbe)
          04062517243D

 26 27  0     0  0            999 V2000
   -3.4155   -0.4081    1.7478 C   0  0  0  0  0  0  0  0  0  0  0  0
   -2.3422   -0.0667    0.8401 N   0  0  0  0  0  0  0  0  0  0  0  0
   -2.3957   -0.3203   -0.4725 C   0  0  0  0  0  0  0  0  0  0  0  0
   -3.3332   -0.8548   -1.0381 O   0  0  0  0  0  0  0  0  0  0  0  0
   -1.3251    0.0451   -1.2133 O   0  0  0  0  0  0  0  0  0  0  0  0
   -0.2119    0.6614   -0.6262 C   0  0  0  0  0  0  0  0  0  0  0  0
   -0.1858    2.0240   -0.4782 C   0  0  0  0  0  0  0  0  0  0  0  0
    0.9539    2.6503    0.0488 C   0  0  0  0  0  0  0  0  0  0  0  0
    2.0414    1.9101    0.4192 C   0  0  0  0  0  0  0  0  0  0  0  0
    2.0438    0.5065    0.2748 C   0  0  0  0  0  0  0  0  0  0  0  0
    0.8980   -0.1417   -0.2593 C   0  0  0  0  0  0  0  0  0  0  0  0
    0.9024   -1.5439   -0.4090 C   0  0  0  0  0  0  0  0  0  0  0  0
    1.9972   -2.2760   -0.0425 C   0  0  0  0  0  0  0  0  0  0  0  0
    3.1308   -1.6404    0.4883 C   0  0  0  0  0  0  0  0  0  0  0  0
    3.1542   -0.2823    0.6430 C   0  0  0  0  0  0  0  0  0  0  0  0
   -3.7852    0.4890    2.2423 H   0  0  0  0  0  0  0  0  0  0  0  0
   -3.0640   -1.1201    2.4935 H   0  0  0  0  0  0  0  0  0  0  0  0
   -4.2154   -0.8583    1.1637 H   0  0  0  0  0  0  0  0  0  0  0  0
   -1.5181    0.3684    1.2292 H   0  0  0  0  0  0  0  0  0  0  0  0
   -1.0434    2.6066   -0.7774 H   0  0  0  0  0  0  0  0  0  0  0  0
    0.9563    3.7232    0.1552 H   0  0  0  0  0  0  0  0  0  0  0  0
    2.9188    2.3893    0.8250 H   0  0  0  0  0  0  0  0  0  0  0  0
    0.0281   -2.0231   -0.8259 H   0  0  0  0  0  0  0  0  0  0  0  0
    1.9951   -3.3485   -0.1615 H   0  0  0  0  0  0  0  0  0  0  0  0
    3.9852   -2.2358    0.7709 H   0  0  0  0  0  0  0  0  0  0  0  0
    4.0250    0.2102    1.0481 H   0  0  0  0  0  0  0  0  0  0  0  0
  1  2  1  0  0  0  0
  2  3  4  0  0  0  0
  3  4  2  0  0  0  0
  3  5  1  0  0  0  0
  5  6  1  0  0  0  0
  6  7  2  0  0  0  0
  7  8  4  0  0  0  0
  8  9  2  0  0  0  0
  9 10  4  0  0  0  0
  6 11  4  0  0  0  0
 10 11  4  0  0  0  0
 11 12  4  0  0  0  0
 12 13  2  0  0  0  0
 13 14  4  0  0  0  0
 10 15  4  0  0  0  0
 14 15  2  0  0  0  0
  1 16  1  0  0  0  0
  1 17  1  0  0  0  0
  1 18  1  0  0  0  0
  2 19  1  0  0  0  0
  7 20  1  0  0  0  0
  8 21  1  0  0  0  0
  9 22  1  0  0  0  0
 12 23  1  0  0  0  0
 13 24  1  0  0  0  0
 14 25  1  0  0  0  0
 15 26  1  0  0  0  0
M  END
