 xtb: 6.7.1 (edcfbbe)
          04062518003D

 24 24  0     0  0            999 V2000
   -1.9724   -0.2799   -0.9764 C   0  0  0  0  0  0  0  0  0  0  0  0
   -1.4396   -0.1725    0.4846 C   0  0  0  0  0  0  0  0  0  0  0  0
   -2.2703   -0.3302    1.1825 H   0  0  0  0  0  0  0  0  0  0  0  0
   -0.8118    1.2039    0.7477 C   0  0  0  0  0  0  0  0  0  0  0  0
   -1.5256    1.9807    0.4412 H   0  0  0  0  0  0  0  0  0  0  0  0
    0.4588    1.4025   -0.0975 C   0  0  0  0  0  0  0  0  0  0  0  0
    1.1793    1.9527    0.5260 H   0  0  0  0  0  0  0  0  0  0  0  0
    1.1083    0.0590   -0.4597 C   0  0  0  0  0  0  0  0  0  0  0  0
    0.6632   -0.3408   -1.3828 H   0  0  0  0  0  0  0  0  0  0  0  0
    0.8404   -0.9519    0.6605 C   0  0  0  0  0  0  0  0  0  0  0  0
    1.2276   -0.5392    1.6127 H   0  0  0  0  0  0  0  0  0  0  0  0
   -0.5365   -1.2243    0.8040 O   0  0  0  0  0  0  0  0  0  0  0  0
    1.4932   -2.1301    0.3345 O   0  0  0  0  0  0  0  0  0  0  0  0
    2.4868    0.2723   -0.6312 O   0  0  0  0  0  0  0  0  0  0  0  0
    0.1165    2.1484   -1.2381 O   0  0  0  0  0  0  0  0  0  0  0  0
   -0.4497    1.3572    2.0995 O   0  0  0  0  0  0  0  0  0  0  0  0
   -1.5410   -1.4421   -1.6337 O   0  0  0  0  0  0  0  0  0  0  0  0
   -1.6037    0.5573   -1.5720 H   0  0  0  0  0  0  0  0  0  0  0  0
   -3.0689   -0.2377   -0.9575 H   0  0  0  0  0  0  0  0  0  0  0  0
    1.2787   -2.8152    0.9853 H   0  0  0  0  0  0  0  0  0  0  0  0
    2.9200   -0.5878   -0.7417 H   0  0  0  0  0  0  0  0  0  0  0  0
    0.9210    2.3350   -1.7436 H   0  0  0  0  0  0  0  0  0  0  0  0
   -1.2441    1.3781    2.6536 H   0  0  0  0  0  0  0  0  0  0  0  0
   -1.7431   -2.2102   -1.0794 H   0  0  0  0  0  0  0  0  0  0  0  0
  1  2  1  0  0  0  0
  2  3  1  0  0  0  0
  2  4  1  0  0  0  0
  4  5  1  0  0  0  0
  4  6  1  0  0  0  0
  6  7  1  0  0  0  0
  6  8  1  0  0  0  0
  8  9  1  0  0  0  0
  8 10  1  0  0  0  0
 10 11  1  0  0  0  0
  2 12  1  0  0  0  0
 10 12  1  0  0  0  0
 10 13  1  0  0  0  0
  8 14  1  0  0  0  0
  6 15  1  0  0  0  0
  4 16  1  0  0  0  0
  1 17  1  0  0  0  0
  1 18  1  0  0  0  0
  1 19  1  0  0  0  0
 13 20  1  0  0  0  0
 14 21  1  0  0  0  0
 15 22  1  0  0  0  0
 16 23  1  0  0  0  0
 17 24  1  0  0  0  0
M  END
