 xtb: 6.7.1 (edcfbbe)
          04062518003D

 24 24  0     0  0            999 V2000
   -2.2632   -1.1222    0.0581 C   0  0  0  0  0  0  0  0  0  0  0  0
   -0.8683   -0.5605    0.3444 C   0  0  0  0  0  0  0  0  0  0  0  0
   -0.8284   -0.2948    1.4120 H   0  0  0  0  0  0  0  0  0  0  0  0
   -0.5557    0.6893   -0.4905 C   0  0  0  0  0  0  0  0  0  0  0  0
   -0.4757    0.3971   -1.5450 H   0  0  0  0  0  0  0  0  0  0  0  0
    0.8031    1.2757   -0.0419 C   0  0  0  0  0  0  0  0  0  0  0  0
    0.6314    2.0006    0.7612 H   0  0  0  0  0  0  0  0  0  0  0  0
    1.7189    0.1669    0.5246 C   0  0  0  0  0  0  0  0  0  0  0  0
    2.7545    0.4366    0.2756 H   0  0  0  0  0  0  0  0  0  0  0  0
    1.3935   -1.1665   -0.1689 C   0  0  0  0  0  0  0  0  0  0  0  0
    2.0302   -1.9729    0.2291 H   0  0  0  0  0  0  0  0  0  0  0  0
    0.0781   -1.5934    0.0829 O   0  0  0  0  0  0  0  0  0  0  0  0
    1.6318   -0.9862   -1.5329 O   0  0  0  0  0  0  0  0  0  0  0  0
    1.5315    0.0951    1.9134 O   0  0  0  0  0  0  0  0  0  0  0  0
    1.4386    1.9900   -1.0673 O   0  0  0  0  0  0  0  0  0  0  0  0
   -1.5898    1.6341   -0.4529 O   0  0  0  0  0  0  0  0  0  0  0  0
   -3.1800   -0.4456    0.8846 O   0  0  0  0  0  0  0  0  0  0  0  0
   -2.2398   -2.1952    0.2866 H   0  0  0  0  0  0  0  0  0  0  0  0
   -2.5070   -0.9813   -1.0011 H   0  0  0  0  0  0  0  0  0  0  0  0
    1.4767   -1.8171   -2.0084 H   0  0  0  0  0  0  0  0  0  0  0  0
    2.1977   -0.4824    2.3137 H   0  0  0  0  0  0  0  0  0  0  0  0
    1.6123    1.3876   -1.8075 H   0  0  0  0  0  0  0  0  0  0  0  0
   -1.8677    1.7793    0.4631 H   0  0  0  0  0  0  0  0  0  0  0  0
   -4.0786   -0.7275    0.6646 H   0  0  0  0  0  0  0  0  0  0  0  0
  1  2  1  0  0  0  0
  2  3  1  0  0  0  0
  2  4  1  0  0  0  0
  4  5  1  0  0  0  0
  4  6  1  0  0  0  0
  6  7  1  0  0  0  0
  6  8  1  0  0  0  0
  8  9  1  0  0  0  0
  8 10  1  0  0  0  0
 10 11  1  0  0  0  0
  2 12  1  0  0  0  0
 10 12  1  0  0  0  0
 10 13  1  0  0  0  0
  8 14  1  0  0  0  0
  6 15  1  0  0  0  0
  4 16  1  0  0  0  0
  1 17  1  0  0  0  0
  1 18  1  0  0  0  0
  1 19  1  0  0  0  0
 13 20  1  0  0  0  0
 14 21  1  0  0  0  0
 15 22  1  0  0  0  0
 16 23  1  0  0  0  0
 17 24  1  0  0  0  0
M  END
