 xtb: 6.7.1 (edcfbbe)
          04032521163D

 19 19  0     0  0            999 V2000
    2.4525   -0.0328    0.2777 C   0  0  0  0  0  0  0  0  0  0  0  0
    1.0047    0.1069   -0.0642 C   0  0  0  0  0  0  0  0  0  0  0  0
    0.3018    1.2264    0.0543 C   0  0  0  0  0  0  0  0  0  0  0  0
   -1.1477    1.2035   -0.3165 C   0  0  0  0  0  0  0  0  0  0  0  0
   -1.8473    0.0076    0.3502 C   0  0  0  0  0  0  0  0  0  0  0  0
   -1.0302   -1.2915    0.2375 C   0  0  0  0  0  0  0  0  0  0  0  0
    0.2673   -1.1027   -0.5626 C   0  0  0  0  0  0  0  0  0  0  0  0
    2.8658    0.9155    0.6114 H   0  0  0  0  0  0  0  0  0  0  0  0
    3.0125   -0.3756   -0.5916 H   0  0  0  0  0  0  0  0  0  0  0  0
    2.5823   -0.7708    1.0687 H   0  0  0  0  0  0  0  0  0  0  0  0
    0.7366    2.1465    0.4150 H   0  0  0  0  0  0  0  0  0  0  0  0
   -1.6440    2.1295   -0.0254 H   0  0  0  0  0  0  0  0  0  0  0  0
   -1.2397    1.1024   -1.4029 H   0  0  0  0  0  0  0  0  0  0  0  0
   -2.0018    0.2471    1.4035 H   0  0  0  0  0  0  0  0  0  0  0  0
   -2.8313   -0.1214   -0.1026 H   0  0  0  0  0  0  0  0  0  0  0  0
   -0.7636   -1.6395    1.2369 H   0  0  0  0  0  0  0  0  0  0  0  0
   -1.6260   -2.0747   -0.2329 H   0  0  0  0  0  0  0  0  0  0  0  0
    0.8835   -1.9986   -0.4816 H   0  0  0  0  0  0  0  0  0  0  0  0
    0.0144   -0.9609   -1.6176 H   0  0  0  0  0  0  0  0  0  0  0  0
  1  2  1  0  0  0  0
  2  3  2  0  0  0  0
  3  4  1  0  0  0  0
  4  5  1  0  0  0  0
  5  6  1  0  0  0  0
  2  7  1  0  0  0  0
  6  7  1  0  0  0  0
  1  8  1  0  0  0  0
  1  9  1  0  0  0  0
  1 10  1  0  0  0  0
  3 11  1  0  0  0  0
  4 12  1  0  0  0  0
  4 13  1  0  0  0  0
  5 14  1  0  0  0  0
  5 15  1  0  0  0  0
  6 16  1  0  0  0  0
  6 17  1  0  0  0  0
  7 18  1  0  0  0  0
  7 19  1  0  0  0  0
M  END
