 xtb: 6.7.1 (edcfbbe)
          04062518003D

 24 24  0     0  0            999 V2000
   -2.2142   -0.9799   -0.4069 C   0  0  0  0  0  0  0  0  0  0  0  0
   -1.1781   -0.2001    0.4191 C   0  0  0  0  0  0  0  0  0  0  0  0
   -1.6726    0.2212    1.3035 H   0  0  0  0  0  0  0  0  0  0  0  0
   -0.5855    0.9495   -0.4203 C   0  0  0  0  0  0  0  0  0  0  0  0
   -0.4391    0.6064   -1.4517 H   0  0  0  0  0  0  0  0  0  0  0  0
    0.7796    1.3202    0.1877 C   0  0  0  0  0  0  0  0  0  0  0  0
    0.6620    1.4537    1.2714 H   0  0  0  0  0  0  0  0  0  0  0  0
    1.7390    0.1463   -0.0697 C   0  0  0  0  0  0  0  0  0  0  0  0
    2.0409    0.1444   -1.1229 H   0  0  0  0  0  0  0  0  0  0  0  0
    1.0021   -1.1958    0.1904 C   0  0  0  0  0  0  0  0  0  0  0  0
    1.6480   -1.8291    0.8163 H   0  0  0  0  0  0  0  0  0  0  0  0
   -0.1604   -1.0385    0.9646 O   0  0  0  0  0  0  0  0  0  0  0  0
    0.7521   -1.7923   -1.0427 O   0  0  0  0  0  0  0  0  0  0  0  0
    2.9325    0.2445    0.6571 O   0  0  0  0  0  0  0  0  0  0  0  0
    1.2692    2.5486   -0.2715 O   0  0  0  0  0  0  0  0  0  0  0  0
   -1.4664    2.0357   -0.5062 O   0  0  0  0  0  0  0  0  0  0  0  0
   -2.8243   -2.0295    0.2990 O   0  0  0  0  0  0  0  0  0  0  0  0
   -1.7258   -1.4417   -1.2667 H   0  0  0  0  0  0  0  0  0  0  0  0
   -2.9565   -0.2562   -0.7691 H   0  0  0  0  0  0  0  0  0  0  0  0
    0.4475   -2.7042   -0.9153 H   0  0  0  0  0  0  0  0  0  0  0  0
    2.7433    0.3977    1.5945 H   0  0  0  0  0  0  0  0  0  0  0  0
    1.3994    2.5204   -1.2300 H   0  0  0  0  0  0  0  0  0  0  0  0
   -1.3967    2.5834    0.2899 H   0  0  0  0  0  0  0  0  0  0  0  0
   -3.2816   -1.6776    1.0756 H   0  0  0  0  0  0  0  0  0  0  0  0
  1  2  1  0  0  0  0
  2  3  1  0  0  0  0
  2  4  1  0  0  0  0
  4  5  1  0  0  0  0
  4  6  1  0  0  0  0
  6  7  1  0  0  0  0
  6  8  1  0  0  0  0
  8  9  1  0  0  0  0
  8 10  1  0  0  0  0
 10 11  1  0  0  0  0
  2 12  1  0  0  0  0
 10 12  1  0  0  0  0
 10 13  1  0  0  0  0
  8 14  1  0  0  0  0
  6 15  1  0  0  0  0
  4 16  1  0  0  0  0
  1 17  1  0  0  0  0
  1 18  1  0  0  0  0
  1 19  1  0  0  0  0
 13 20  1  0  0  0  0
 14 21  1  0  0  0  0
 15 22  1  0  0  0  0
 16 23  1  0  0  0  0
 17 24  1  0  0  0  0
M  END
