 xtb: 6.7.1 (edcfbbe)
          04032520533D

 24 24  0     0  0            999 V2000
    2.0948   -0.5261   -0.6029 C   0  0  0  0  0  0  0  0  0  0  0  0
    0.9197   -0.4874    0.3739 C   0  0  0  0  0  0  0  0  0  0  0  0
    1.3138   -0.6925    1.3761 H   0  0  0  0  0  0  0  0  0  0  0  0
   -0.0766   -1.6006    0.0012 C   0  0  0  0  0  0  0  0  0  0  0  0
   -1.4880   -1.2792    0.4776 C   0  0  0  0  0  0  0  0  0  0  0  0
   -2.0325   -0.0567   -0.2711 C   0  0  0  0  0  0  0  0  0  0  0  0
   -0.9077    0.9241   -0.6257 C   0  0  0  0  0  0  0  0  0  0  0  0
    0.1979    0.8788    0.4295 C   0  0  0  0  0  0  0  0  0  0  0  0
   -0.2819    0.9600    1.4114 H   0  0  0  0  0  0  0  0  0  0  0  0
    1.1439    2.0695    0.2923 C   0  0  0  0  0  0  0  0  0  0  0  0
    1.7790   -0.2284   -1.6001 H   0  0  0  0  0  0  0  0  0  0  0  0
    2.9008    0.1275   -0.2826 H   0  0  0  0  0  0  0  0  0  0  0  0
    2.4847   -1.5404   -0.6594 H   0  0  0  0  0  0  0  0  0  0  0  0
   -0.0962   -1.7231   -1.0837 H   0  0  0  0  0  0  0  0  0  0  0  0
    0.2586   -2.5467    0.4306 H   0  0  0  0  0  0  0  0  0  0  0  0
   -2.1428   -2.1366    0.3128 H   0  0  0  0  0  0  0  0  0  0  0  0
   -1.4672   -1.0869    1.5520 H   0  0  0  0  0  0  0  0  0  0  0  0
   -2.5323   -0.3769   -1.1871 H   0  0  0  0  0  0  0  0  0  0  0  0
   -2.7783    0.4427    0.3501 H   0  0  0  0  0  0  0  0  0  0  0  0
   -0.4810    0.6739   -1.5983 H   0  0  0  0  0  0  0  0  0  0  0  0
   -1.3113    1.9355   -0.6991 H   0  0  0  0  0  0  0  0  0  0  0  0
    0.6008    2.9933    0.4808 H   0  0  0  0  0  0  0  0  0  0  0  0
    1.5656    2.1237   -0.7074 H   0  0  0  0  0  0  0  0  0  0  0  0
    1.9552    1.9997    1.0132 H   0  0  0  0  0  0  0  0  0  0  0  0
  1  2  1  0  0  0  0
  2  3  1  0  0  0  0
  2  4  1  0  0  0  0
  4  5  1  0  0  0  0
  5  6  1  0  0  0  0
  6  7  1  0  0  0  0
  2  8  1  0  0  0  0
  7  8  1  0  0  0  0
  8  9  1  0  0  0  0
  8 10  1  0  0  0  0
  1 11  1  0  0  0  0
  1 12  1  0  0  0  0
  1 13  1  0  0  0  0
  4 14  1  0  0  0  0
  4 15  1  0  0  0  0
  5 16  1  0  0  0  0
  5 17  1  0  0  0  0
  6 18  1  0  0  0  0
  6 19  1  0  0  0  0
  7 20  1  0  0  0  0
  7 21  1  0  0  0  0
 10 22  1  0  0  0  0
 10 23  1  0  0  0  0
 10 24  1  0  0  0  0
M  END
