19
CONF2
C -3.1007908588 0.4024576950 0.0787313047
C -1.6378966483 0.0548694469 0.0402827738
C -1.2047916505 -1.2690372100 -0.0315320510
C 0.1538202566 -1.5760454154 -0.0880132799
C 1.0952262845 -0.5526985372 -0.0729474573
C 0.7004836172 0.7908727130 0.0040359951
C -0.6656597398 1.0622615455 0.0590703059
C 1.7286523109 1.8825844404 0.0266099004
O 2.4521072671 -0.8055306681 -0.1313015666
H -3.7133101733 -0.4880987017 0.2421776998
H -3.3187613796 1.1200277357 0.8764595606
H -3.4234046702 0.8615522666 -0.8632051455
H -1.9325997765 -2.0757126283 -0.0438953702
H 0.4851115872 -2.6100809706 -0.1435027174
H -0.9821405401 2.1015866538 0.1187767327
H 1.2478683463 2.8613672858 0.0996161644
H 2.4118710650 1.7697493019 0.8766788023
H 2.3459064975 1.8685028076 -0.8794928550
H 2.5878783549 -1.7611015804 -0.1958246059
19
CONF1
C -3.0951592340 0.4074542348 0.0003855238
C -1.6332704601 0.0542240656 -0.0001614800
C -1.2035420464 -1.2724155882 -0.0002393822
C 0.1550765036 -1.5851456706 -0.0000890297
C 1.0992439357 -0.5647129038 0.0000641975
C 0.7081958967 0.7821214727 0.0001475186
C -0.6577948772 1.0589592360 0.0000232505
C 1.7387179840 1.8716899660 -0.0000771442
O 2.4569830600 -0.8241093021 -0.0000781704
H -3.3617296376 0.9958541601 0.8853860766
H -3.3590084352 1.0098165421 -0.8759202343
H -3.7165291463 -0.4917961369 -0.0074681696
H -1.9335583300 -2.0770658200 -0.0004580991
H 0.4842887491 -2.6211899469 -0.0002383797
H -0.9717853489 2.1007330373 0.0000508452
H 2.3908562846 1.8042539363 0.8777773698
H 2.3870525862 1.8073468559 -0.8810102884
H 1.2590539222 2.8531025782 0.0026207301
H 2.5898122786 -1.7822600787 -0.0000494361
19
CONF3
C -3.1006144777 0.3800329026 -0.0008041095
C -1.6348221382 0.0425904471 0.0005047090
C -1.1899229964 -1.2801371191 0.0004043450
C 0.1704415592 -1.5782957649 -0.0000246982
C 1.1045367103 -0.5487248801 -0.0002808492
C 0.6988464471 0.7948740939 0.0000638553
C -0.6712662253 1.0571015036 0.0004861883
C 1.7133359299 1.9024286019 0.0002307455
O 2.4402295863 -0.9068485402 -0.0005850978
H -3.7122452175 -0.5257287933 0.0159039090
H -3.3695719563 0.9873788051 0.8704230874
H -3.3748427594 0.9574100684 -0.8907327469
H -1.9118168173 -2.0920976514 0.0007338008
H 0.5152055659 -2.6078217331 0.0000611359
H -0.9961124532 2.0955552229 0.0008376510
H 2.3617788989 1.8570623053 -0.8842461864
H 1.2179151875 2.8754453999 0.0017796754
H 2.3636147956 1.8551775430 0.8832557045
H 2.9860676735 -0.1089643043 -0.0006586978
