 xtb: 6.7.1 (edcfbbe)
          04062519153D

 24 24  0     0  0            999 V2000
   -2.5666   -0.6684   -0.2877 C   0  0  0  0  0  0  0  0  0  0  0  0
   -1.1722   -0.2948    0.2268 C   0  0  0  0  0  0  0  0  0  0  0  0
   -1.2022   -0.2118    1.3241 H   0  0  0  0  0  0  0  0  0  0  0  0
   -0.7074    1.0436   -0.3595 C   0  0  0  0  0  0  0  0  0  0  0  0
   -0.7006    0.9531   -1.4594 H   0  0  0  0  0  0  0  0  0  0  0  0
    0.7170    1.3372    0.1291 C   0  0  0  0  0  0  0  0  0  0  0  0
    0.6911    1.5050    1.2125 H   0  0  0  0  0  0  0  0  0  0  0  0
    1.6574    0.1586   -0.1602 C   0  0  0  0  0  0  0  0  0  0  0  0
    1.8234    0.0664   -1.2456 H   0  0  0  0  0  0  0  0  0  0  0  0
    1.0380   -1.1652    0.3153 C   0  0  0  0  0  0  0  0  0  0  0  0
    1.0387   -1.1616    1.4245 H   0  0  0  0  0  0  0  0  0  0  0  0
   -0.2836   -1.3304   -0.1529 O   0  0  0  0  0  0  0  0  0  0  0  0
    1.7968   -2.1948   -0.1941 O   0  0  0  0  0  0  0  0  0  0  0  0
    2.8782    0.3133    0.5142 O   0  0  0  0  0  0  0  0  0  0  0  0
    1.2128    2.5361   -0.4171 O   0  0  0  0  0  0  0  0  0  0  0  0
   -1.6007    2.0497    0.0385 O   0  0  0  0  0  0  0  0  0  0  0  0
   -3.1104   -1.7743    0.3807 O   0  0  0  0  0  0  0  0  0  0  0  0
   -2.5009   -0.8559   -1.3662 H   0  0  0  0  0  0  0  0  0  0  0  0
   -3.2373    0.1718   -0.1027 H   0  0  0  0  0  0  0  0  0  0  0  0
    1.4238   -3.0505    0.0699 H   0  0  0  0  0  0  0  0  0  0  0  0
    3.2283    1.1991    0.3265 H   0  0  0  0  0  0  0  0  0  0  0  0
    1.2780    2.4573   -1.3813 H   0  0  0  0  0  0  0  0  0  0  0  0
   -1.1689    2.9121   -0.0759 H   0  0  0  0  0  0  0  0  0  0  0  0
   -2.5354   -2.5384    0.2313 H   0  0  0  0  0  0  0  0  0  0  0  0
  1  2  1  0  0  0  0
  2  3  1  0  0  0  0
  2  4  1  0  0  0  0
  4  5  1  0  0  0  0
  4  6  1  0  0  0  0
  6  7  1  0  0  0  0
  6  8  1  0  0  0  0
  8  9  1  0  0  0  0
  8 10  1  0  0  0  0
 10 11  1  0  0  0  0
  2 12  1  0  0  0  0
 10 12  1  0  0  0  0
 10 13  1  0  0  0  0
  8 14  1  0  0  0  0
  6 15  1  0  0  0  0
  4 16  1  0  0  0  0
  1 17  1  0  0  0  0
  1 18  1  0  0  0  0
  1 19  1  0  0  0  0
 13 20  1  0  0  0  0
 14 21  1  0  0  0  0
 15 22  1  0  0  0  0
 16 23  1  0  0  0  0
 17 24  1  0  0  0  0
M  END
