 xtb: 6.7.1 (edcfbbe)
          04032521113D

 24 25  0     0  0            999 V2000
   -3.4380   -1.1800    0.0062 C   0  0  0  0  0  0  0  0  0  0  0  0
   -2.0474   -0.6237    0.0037 C   0  0  0  0  0  0  0  0  0  0  0  0
   -1.8661    0.7732   -0.0303 C   0  0  0  0  0  0  0  0  0  0  0  0
   -0.6261    1.3540   -0.0351 C   0  0  0  0  0  0  0  0  0  0  0  0
    0.5285    0.5238   -0.0051 C   0  0  0  0  0  0  0  0  0  0  0  0
    1.8420    1.0389   -0.0083 C   0  0  0  0  0  0  0  0  0  0  0  0
    2.9277    0.2073    0.0208 C   0  0  0  0  0  0  0  0  0  0  0  0
    2.7563   -1.1837    0.0551 C   0  0  0  0  0  0  0  0  0  0  0  0
    1.4978   -1.7161    0.0594 C   0  0  0  0  0  0  0  0  0  0  0  0
    0.3579   -0.8858    0.0295 C   0  0  0  0  0  0  0  0  0  0  0  0
   -0.9430   -1.4305    0.0332 C   0  0  0  0  0  0  0  0  0  0  0  0
   -0.4921    2.8469   -0.0716 C   0  0  0  0  0  0  0  0  0  0  0  0
   -3.9894   -0.8111    0.8698 H   0  0  0  0  0  0  0  0  0  0  0  0
   -3.9711   -0.8635   -0.8892 H   0  0  0  0  0  0  0  0  0  0  0  0
   -3.4220   -2.2660    0.0385 H   0  0  0  0  0  0  0  0  0  0  0  0
   -2.7469    1.4002   -0.0532 H   0  0  0  0  0  0  0  0  0  0  0  0
    1.9921    2.1068   -0.0343 H   0  0  0  0  0  0  0  0  0  0  0  0
    3.9265    0.6186    0.0174 H   0  0  0  0  0  0  0  0  0  0  0  0
    3.6234   -1.8274    0.0776 H   0  0  0  0  0  0  0  0  0  0  0  0
    1.3547   -2.7871    0.0856 H   0  0  0  0  0  0  0  0  0  0  0  0
   -1.0508   -2.5060    0.0599 H   0  0  0  0  0  0  0  0  0  0  0  0
    0.0423    3.2051    0.8070 H   0  0  0  0  0  0  0  0  0  0  0  0
    0.0593    3.1607   -0.9566 H   0  0  0  0  0  0  0  0  0  0  0  0
   -1.4732    3.3137   -0.0928 H   0  0  0  0  0  0  0  0  0  0  0  0
  1  2  1  0  0  0  0
  2  3  4  0  0  0  0
  3  4  2  0  0  0  0
  4  5  4  0  0  0  0
  5  6  4  0  0  0  0
  6  7  2  0  0  0  0
  7  8  4  0  0  0  0
  8  9  2  0  0  0  0
  5 10  4  0  0  0  0
  9 10  4  0  0  0  0
  2 11  2  0  0  0  0
 10 11  4  0  0  0  0
  4 12  1  0  0  0  0
  1 13  1  0  0  0  0
  1 14  1  0  0  0  0
  1 15  1  0  0  0  0
  3 16  1  0  0  0  0
  6 17  1  0  0  0  0
  7 18  1  0  0  0  0
  8 19  1  0  0  0  0
  9 20  1  0  0  0  0
 11 21  1  0  0  0  0
 12 22  1  0  0  0  0
 12 23  1  0  0  0  0
 12 24  1  0  0  0  0
M  END
