 xtb: 6.7.1 (edcfbbe)
          04062518003D

 24 24  0     0  0            999 V2000
   -2.4090   -1.1392   -0.2900 C   0  0  0  0  0  0  0  0  0  0  0  0
   -1.0649   -0.6142    0.2416 C   0  0  0  0  0  0  0  0  0  0  0  0
   -1.0963   -0.6038    1.3431 H   0  0  0  0  0  0  0  0  0  0  0  0
   -0.7653    0.8101   -0.2752 C   0  0  0  0  0  0  0  0  0  0  0  0
   -0.7832    0.7843   -1.3724 H   0  0  0  0  0  0  0  0  0  0  0  0
    0.6318    1.2268    0.2011 C   0  0  0  0  0  0  0  0  0  0  0  0
    0.6436    1.2838    1.2975 H   0  0  0  0  0  0  0  0  0  0  0  0
    1.6711    0.1755   -0.2287 C   0  0  0  0  0  0  0  0  0  0  0  0
    1.7271    0.1454   -1.3299 H   0  0  0  0  0  0  0  0  0  0  0  0
    1.2317   -1.2159    0.2729 C   0  0  0  0  0  0  0  0  0  0  0  0
    1.2519   -1.2139    1.3746 H   0  0  0  0  0  0  0  0  0  0  0  0
   -0.0667   -1.5101   -0.2042 O   0  0  0  0  0  0  0  0  0  0  0  0
    2.0699   -2.2317   -0.1202 O   0  0  0  0  0  0  0  0  0  0  0  0
    2.9323    0.4635    0.3137 O   0  0  0  0  0  0  0  0  0  0  0  0
    1.0047    2.5112   -0.2323 O   0  0  0  0  0  0  0  0  0  0  0  0
   -1.7572    1.7336    0.0945 O   0  0  0  0  0  0  0  0  0  0  0  0
   -3.5088   -0.4793    0.2733 O   0  0  0  0  0  0  0  0  0  0  0  0
   -2.4996   -2.1930   -0.0197 H   0  0  0  0  0  0  0  0  0  0  0  0
   -2.4127   -1.0585   -1.3843 H   0  0  0  0  0  0  0  0  0  0  0  0
    2.0084   -2.3583   -1.0806 H   0  0  0  0  0  0  0  0  0  0  0  0
    3.0989    1.4155    0.2130 H   0  0  0  0  0  0  0  0  0  0  0  0
    0.8261    2.6115   -1.1789 H   0  0  0  0  0  0  0  0  0  0  0  0
   -1.6350    2.0034    1.0163 H   0  0  0  0  0  0  0  0  0  0  0  0
   -3.4334    0.4696    0.0723 H   0  0  0  0  0  0  0  0  0  0  0  0
  1  2  1  0  0  0  0
  2  3  1  0  0  0  0
  2  4  1  0  0  0  0
  4  5  1  0  0  0  0
  4  6  1  0  0  0  0
  6  7  1  0  0  0  0
  6  8  1  0  0  0  0
  8  9  1  0  0  0  0
  8 10  1  0  0  0  0
 10 11  1  0  0  0  0
  2 12  1  0  0  0  0
 10 12  1  0  0  0  0
 10 13  1  0  0  0  0
  8 14  1  0  0  0  0
  6 15  1  0  0  0  0
  4 16  1  0  0  0  0
  1 17  1  0  0  0  0
  1 18  1  0  0  0  0
  1 19  1  0  0  0  0
 13 20  1  0  0  0  0
 14 21  1  0  0  0  0
 15 22  1  0  0  0  0
 16 23  1  0  0  0  0
 17 24  1  0  0  0  0
M  END
