 xtb: 6.7.1 (edcfbbe)
          04032522113D

 11 10  0     0  0            999 V2000
   -2.4825    0.2588   -0.0045 C   0  0  0  0  0  0  0  0  0  0  0  0
   -1.0511    0.3200    0.0023 O   0  0  0  0  0  0  0  0  0  0  0  0
   -0.3634   -0.7992    0.0078 C   0  0  0  0  0  0  0  0  0  0  0  0
   -0.8411   -1.9133    0.0071 O   0  0  0  0  0  0  0  0  0  0  0  0
    1.1353   -0.5842    0.0192 C   0  0  0  0  0  0  0  0  0  0  0  0
    1.5854    1.1379   -0.0133 Cl  0  0  0  0  0  0  0  0  0  0  0  0
   -2.8278    0.7343   -0.9204 H   0  0  0  0  0  0  0  0  0  0  0  0
   -2.8345    0.8106    0.8645 H   0  0  0  0  0  0  0  0  0  0  0  0
   -2.8096   -0.7802    0.0370 H   0  0  0  0  0  0  0  0  0  0  0  0
    1.5736   -1.0687   -0.8539 H   0  0  0  0  0  0  0  0  0  0  0  0
    1.5524   -1.0281    0.9240 H   0  0  0  0  0  0  0  0  0  0  0  0
  1  2  1  0  0  0  0
  2  3  4  0  0  0  0
  3  4  2  0  0  0  0
  3  5  1  0  0  0  0
  5  6  1  0  0  0  0
  1  7  1  0  0  0  0
  1  8  1  0  0  0  0
  1  9  1  0  0  0  0
  5 10  1  0  0  0  0
  5 11  1  0  0  0  0
M  END
