17
 xtb: 6.7.1 (edcfbbe)
C           -0.83031618255400       -2.28764249774717        0.00010138868808
C            0.06816301774677       -1.08238123373325        0.00020666367924
C            1.45446133567359       -1.25528190357734        0.00006982436877
C            2.32077981911461       -0.16652401049023       -0.00009535897504
C            1.82068032917156        1.13669971134712       -0.00016729510264
C            0.45088782996818        1.33371053722762       -0.00002118340525
C           -0.43032930182459        0.24075939303806        0.00014487166174
C           -1.87357168428437        0.49305355465455        0.00020131747474
O           -2.37945147539414        1.61354788632811       -0.00045655646539
H           -1.47951050382789       -2.30722098119461        0.88151581685797
H           -1.47837188577718       -2.30770257653090       -0.88215588325471
H           -0.23085882410956       -3.20042292513856        0.00072007652827
H            1.85923205515813       -2.26302880785814        0.00008819906217
H            3.39324275348941       -0.33570795493913       -0.00015049832784
H            2.49798966333688        1.98428078409570       -0.00032522666271
H            0.03678319607497        2.33693562981969       -0.00003595395536
H           -2.52808671551574       -0.39567364244403        0.00235558016305
