 xtb: 6.7.1 (edcfbbe)
          04042521173D

 15 14  0     0  0            999 V2000
   -2.1894    0.3035   -0.2991 C   0  0  0  0  0  0  0  0  0  0  0  0
   -1.0005    0.1726    0.6542 C   0  0  0  0  0  0  0  0  0  0  0  0
    0.0030   -0.8033    0.1222 C   0  0  0  0  0  0  0  0  0  0  0  0
    1.2584   -0.5684   -0.2286 C   0  0  0  0  0  0  0  0  0  0  0  0
    1.9998    0.7272   -0.1680 C   0  0  0  0  0  0  0  0  0  0  0  0
   -1.8574    0.6758   -1.2656 H   0  0  0  0  0  0  0  0  0  0  0  0
   -2.9264    0.9933    0.1048 H   0  0  0  0  0  0  0  0  0  0  0  0
   -2.6653   -0.6630   -0.4492 H   0  0  0  0  0  0  0  0  0  0  0  0
   -0.5510    1.1528    0.8093 H   0  0  0  0  0  0  0  0  0  0  0  0
   -1.3603   -0.1884    1.6219 H   0  0  0  0  0  0  0  0  0  0  0  0
   -0.3846   -1.8088    0.0077 H   0  0  0  0  0  0  0  0  0  0  0  0
    1.8501   -1.3946   -0.6054 H   0  0  0  0  0  0  0  0  0  0  0  0
    2.8562    0.6305    0.4985 H   0  0  0  0  0  0  0  0  0  0  0  0
    1.3763    1.5432    0.1826 H   0  0  0  0  0  0  0  0  0  0  0  0
    2.3796    0.9783   -1.1577 H   0  0  0  0  0  0  0  0  0  0  0  0
  1  2  1  0  0  0  0
  2  3  1  0  0  0  0
  3  4  2  0  0  0  0
  4  5  1  0  0  0  0
  1  6  1  0  0  0  0
  1  7  1  0  0  0  0
  1  8  1  0  0  0  0
  2  9  1  0  0  0  0
  2 10  1  0  0  0  0
  3 11  1  0  0  0  0
  4 12  1  0  0  0  0
  5 13  1  0  0  0  0
  5 14  1  0  0  0  0
  5 15  1  0  0  0  0
M  END
