 xtb: 6.7.1 (edcfbbe)
          04062518003D

 24 24  0     0  0            999 V2000
   -2.2565   -0.9609    0.7729 C   0  0  0  0  0  0  0  0  0  0  0  0
   -0.8143   -0.4432    0.7515 C   0  0  0  0  0  0  0  0  0  0  0  0
   -0.5341   -0.1338    1.7680 H   0  0  0  0  0  0  0  0  0  0  0  0
   -0.6376    0.7567   -0.1936 C   0  0  0  0  0  0  0  0  0  0  0  0
   -0.8099    0.4077   -1.2205 H   0  0  0  0  0  0  0  0  0  0  0  0
    0.8035    1.2890   -0.0889 C   0  0  0  0  0  0  0  0  0  0  0  0
    0.8142    2.0764    0.6719 H   0  0  0  0  0  0  0  0  0  0  0  0
    1.7785    0.1770    0.3547 C   0  0  0  0  0  0  0  0  0  0  0  0
    2.7492    0.3893   -0.1140 H   0  0  0  0  0  0  0  0  0  0  0  0
    1.2739   -1.1731   -0.1820 C   0  0  0  0  0  0  0  0  0  0  0  0
    1.9503   -1.9882    0.1241 H   0  0  0  0  0  0  0  0  0  0  0  0
    0.0248   -1.5258    0.3505 O   0  0  0  0  0  0  0  0  0  0  0  0
    1.2405   -1.0693   -1.5752 O   0  0  0  0  0  0  0  0  0  0  0  0
    1.8772    0.1813    1.7542 O   0  0  0  0  0  0  0  0  0  0  0  0
    1.2312    1.8910   -1.2804 O   0  0  0  0  0  0  0  0  0  0  0  0
   -1.5199    1.8028    0.1264 O   0  0  0  0  0  0  0  0  0  0  0  0
   -2.8286   -0.8590   -0.5130 O   0  0  0  0  0  0  0  0  0  0  0  0
   -2.8283   -0.3655    1.4947 H   0  0  0  0  0  0  0  0  0  0  0  0
   -2.2179   -2.0021    1.1089 H   0  0  0  0  0  0  0  0  0  0  0  0
    0.9251   -1.9023   -1.9592 H   0  0  0  0  0  0  0  0  0  0  0  0
    2.6111   -0.3825    2.0400 H   0  0  0  0  0  0  0  0  0  0  0  0
    1.2459    1.2175   -1.9794 H   0  0  0  0  0  0  0  0  0  0  0  0
   -2.4007    1.5752   -0.2057 H   0  0  0  0  0  0  0  0  0  0  0  0
   -3.6617   -1.3498   -0.5303 H   0  0  0  0  0  0  0  0  0  0  0  0
  1  2  1  0  0  0  0
  2  3  1  0  0  0  0
  2  4  1  0  0  0  0
  4  5  1  0  0  0  0
  4  6  1  0  0  0  0
  6  7  1  0  0  0  0
  6  8  1  0  0  0  0
  8  9  1  0  0  0  0
  8 10  1  0  0  0  0
 10 11  1  0  0  0  0
  2 12  1  0  0  0  0
 10 12  1  0  0  0  0
 10 13  1  0  0  0  0
  8 14  1  0  0  0  0
  6 15  1  0  0  0  0
  4 16  1  0  0  0  0
  1 17  1  0  0  0  0
  1 18  1  0  0  0  0
  1 19  1  0  0  0  0
 13 20  1  0  0  0  0
 14 21  1  0  0  0  0
 15 22  1  0  0  0  0
 16 23  1  0  0  0  0
 17 24  1  0  0  0  0
M  END
