13
CONF1
C -1.9446268914 0.6452773796 0.0000264150
C -1.9088431716 -0.7398705602 0.0000454666
C -0.6900955927 -1.3964491262 0.0000308054
C 0.4662080252 -0.6467514891 -0.0000609631
C 0.4619046593 0.7451112413 -0.0001347972
C -0.7759568022 1.3828489253 -0.0000061980
O 1.5946369817 1.4861994520 0.0000255027
F 1.6850542742 -1.2854137959 0.0000407932
H -2.8923619893 1.1590826677 -0.0000991337
H -2.8227134732 -1.3103764074 -0.0002503388
H -0.6214451948 -2.4719423834 -0.0001984592
H -0.7890056911 2.4603813847 0.0004610370
H 2.3806837556 0.9174743140 0.0000961080
13
CONF2
C -1.9500010273 0.6246550143 0.0000194982
C -1.9000142660 -0.7581945700 0.0000046337
C -0.6723457892 -1.3995481209 0.0000484525
C 0.4800561694 -0.6436102759 0.0000935720
C 0.4589540895 0.7508345577 0.0002013441
C -0.7857081756 1.3722794948 -0.0000378399
O 1.6307466934 1.4292294977 -0.0001152453
F 1.6893067020 -1.2839931113 -0.0000386532
H -2.9022240616 1.1303353569 -0.0002357694
H -2.8068656482 -1.3395586352 0.0000504000
H -0.5921087238 -2.4742591424 0.0001665245
H -0.8357022471 2.4503597386 -0.0008796794
H 1.4723884713 2.3866018388 -0.0004718542
