13
CONF1
C -1.9504284746 0.6489643051 0.0000103811
C -1.9126720712 -0.7435741999 -0.0000828180
C -0.6839344316 -1.4026895389 -0.0001046856
C 0.4723818605 -0.6493100886 -0.0000320314
C 0.4592555411 0.7449354273 0.0000578435
C -0.7732919876 1.3921355866 0.0000792938
O 1.6106273593 1.4891480029 0.0001288143
F 1.6858701507 -1.2691461898 -0.0000469907
H -2.9035497698 1.1669738095 0.0000271855
H -2.8308635573 -1.3201942043 -0.0001408691
H -0.6140682301 -2.4853122419 -0.0001830812
H -0.7925920391 2.4771279597 0.0001578269
H 2.3767044861 0.8965129510 0.0001053774
13
CONF2
C -1.9597481814 0.6278599480 -0.0001599784
C -1.9049374599 -0.7630044078 0.0000135038
C -0.6674510191 -1.4066738782 0.0001206325
C 0.4820450731 -0.6430865272 0.0000326919
C 0.4517498083 0.7517882948 -0.0001489088
C -0.7897209600 1.3842741614 -0.0002414289
O 1.6495525462 1.4150758165 -0.0002529702
F 1.6950705804 -1.2543977791 0.0001241010
H -2.9184168374 1.1356010042 -0.0002500250
H -2.8159047237 -1.3509778066 0.0000701277
H -0.5851468972 -2.4884190281 0.0002694260
H -0.8263493888 2.4701315777 -0.0004063969
H 1.4757396248 2.3669603166 -0.0003653916
