24
 xtb: 6.7.1 (edcfbbe)
C           -3.57790121781102        0.37225519828845       -0.25455999803340
O           -2.18633056182266        0.45958037129084       -0.65455430349797
C           -1.31422938618739       -0.25037992365585        0.09121238095785
O           -1.66356534205661       -0.95041347213622        1.02849260743264
C            0.10750014560355       -0.02637564788857       -0.34299841679596
C            0.95830179743073       -1.28891267396619       -0.17240959989721
C            2.40729723823577       -1.01924617921368       -0.57955568106573
C            3.00047718400195        0.13907363203088        0.22462568401522
C            2.14658015223255        1.40031292578785        0.08498101221634
C            0.69435445862786        1.13850972645378        0.48563656408713
H           -3.70199159381194        0.74741859146051        0.76438739989582
H           -3.92568237665237       -0.66179293081476       -0.31881476767884
H           -4.12142088191566        0.99994274064019       -0.95982735318263
H            0.09947704208834        0.27473880394773       -1.39714178772582
H            0.92481554844159       -1.60014384715152        0.87913655403742
H            0.53517205603534       -2.10543529914472       -0.76872310684141
H            3.00487557404515       -1.92672546259647       -0.43741278888819
H            2.44442509716276       -0.77565392275762       -1.65027324333886
H            3.05083563205654       -0.14675825603780        1.28438781154809
H            4.02666300635242        0.34122358065239       -0.10293977355474
H            2.55490508968977        2.20856630015502        0.70238840770202
H            2.17448355387250        1.74545103059290       -0.95745065698329
H            0.64451124971941        0.87068410563248        1.54954297644053
H            0.08780380496941        2.03964518976750        0.34244485264163
