 xtb: 6.7.1 (edcfbbe)
          04042519543D

 14 13  0     0  0            999 V2000
   -2.5683    0.6124   -0.1598 C   0  0  0  0  0  0  0  0  0  0  0  0
   -1.3855   -0.3088    0.0672 C   0  0  0  0  0  0  0  0  0  0  0  0
   -0.1816    0.4505   -0.1314 O   0  0  0  0  0  0  0  0  0  0  0  0
    0.9784   -0.1715    0.0294 C   0  0  0  0  0  0  0  0  0  0  0  0
    1.0630   -1.3445    0.3354 O   0  0  0  0  0  0  0  0  0  0  0  0
    2.1415    0.7426   -0.2115 C   0  0  0  0  0  0  0  0  0  0  0  0
   -2.5422    1.0083   -1.1707 H   0  0  0  0  0  0  0  0  0  0  0  0
   -3.4891    0.0571   -0.0154 H   0  0  0  0  0  0  0  0  0  0  0  0
   -2.5344    1.4406    0.5417 H   0  0  0  0  0  0  0  0  0  0  0  0
   -1.3834   -1.1497   -0.6342 H   0  0  0  0  0  0  0  0  0  0  0  0
   -1.3742   -0.7149    1.0841 H   0  0  0  0  0  0  0  0  0  0  0  0
    2.7682    0.7601    0.6762 H   0  0  0  0  0  0  0  0  0  0  0  0
    1.7851    1.7391   -0.4475 H   0  0  0  0  0  0  0  0  0  0  0  0
    2.7367    0.3475   -1.0309 H   0  0  0  0  0  0  0  0  0  0  0  0
  1  2  1  0  0  0  0
  2  3  1  0  0  0  0
  3  4  1  0  0  0  0
  4  5  2  0  0  0  0
  4  6  1  0  0  0  0
  1  7  1  0  0  0  0
  1  8  1  0  0  0  0
  1  9  1  0  0  0  0
  2 10  1  0  0  0  0
  2 11  1  0  0  0  0
  6 12  1  0  0  0  0
  6 13  1  0  0  0  0
  6 14  1  0  0  0  0
M  END
