 xtb: 6.7.1 (edcfbbe)
          04032521413D

 11 10  0     0  0            999 V2000
    0.4095    1.7146   -0.1538 C   0  0  0  0  0  0  0  0  0  0  0  0
    0.4484    0.2796    0.3301 C   0  0  0  0  0  0  0  0  0  0  0  0
    0.3060    0.2229    1.4112 H   0  0  0  0  0  0  0  0  0  0  0  0
   -0.5421   -0.6236   -0.3843 C   0  0  0  0  0  0  0  0  0  0  0  0
   -2.2138   -0.1683    0.0701 Cl  0  0  0  0  0  0  0  0  0  0  0  0
    2.0902   -0.4147    0.0222 Cl  0  0  0  0  0  0  0  0  0  0  0  0
    0.6174    1.7631   -1.2195 H   0  0  0  0  0  0  0  0  0  0  0  0
   -0.5800    2.1242    0.0329 H   0  0  0  0  0  0  0  0  0  0  0  0
    1.1443    2.3134    0.3762 H   0  0  0  0  0  0  0  0  0  0  0  0
   -0.4646   -0.5187   -1.4655 H   0  0  0  0  0  0  0  0  0  0  0  0
   -0.4121   -1.6651   -0.0944 H   0  0  0  0  0  0  0  0  0  0  0  0
  1  2  1  0  0  0  0
  2  3  1  0  0  0  0
  2  4  1  0  0  0  0
  4  5  1  0  0  0  0
  2  6  1  0  0  0  0
  1  7  1  0  0  0  0
  1  8  1  0  0  0  0
  1  9  1  0  0  0  0
  4 10  1  0  0  0  0
  4 11  1  0  0  0  0
M  END
