 xtb: 6.7.1 (edcfbbe)
          04052503223D

 20 19  0     0  0            999 V2000
   -1.4915    0.1732   -1.2438 C   0  0  0  0  0  0  0  0  0  0  0  0
   -0.6387    0.4311   -0.0003 C   0  0  0  0  0  0  0  0  0  0  0  0
   -1.4909    0.1746    1.2440 C   0  0  0  0  0  0  0  0  0  0  0  0
    0.6387   -0.4312   -0.0002 C   0  0  0  0  0  0  0  0  0  0  0  0
    1.4915   -0.1733   -1.2438 C   0  0  0  0  0  0  0  0  0  0  0  0
    1.4908   -0.1745    1.2440 C   0  0  0  0  0  0  0  0  0  0  0  0
   -2.4279    0.7223   -1.1737 H   0  0  0  0  0  0  0  0  0  0  0  0
   -0.9846    0.4943   -2.1487 H   0  0  0  0  0  0  0  0  0  0  0  0
   -1.7230   -0.8864   -1.3302 H   0  0  0  0  0  0  0  0  0  0  0  0
   -0.3377    1.4855   -0.0009 H   0  0  0  0  0  0  0  0  0  0  0  0
   -0.9843    0.4986    2.1481 H   0  0  0  0  0  0  0  0  0  0  0  0
   -2.4282    0.7219    1.1728 H   0  0  0  0  0  0  0  0  0  0  0  0
   -1.7205   -0.8853    1.3329 H   0  0  0  0  0  0  0  0  0  0  0  0
    0.3377   -1.4855   -0.0008 H   0  0  0  0  0  0  0  0  0  0  0  0
    1.7216    0.8866   -1.3312 H   0  0  0  0  0  0  0  0  0  0  0  0
    2.4287   -0.7210   -1.1729 H   0  0  0  0  0  0  0  0  0  0  0  0
    0.9853   -0.4959   -2.1486 H   0  0  0  0  0  0  0  0  0  0  0  0
    0.9838   -0.4973    2.1483 H   0  0  0  0  0  0  0  0  0  0  0  0
    1.7215    0.8852    1.3321 H   0  0  0  0  0  0  0  0  0  0  0  0
    2.4277   -0.7228    1.1735 H   0  0  0  0  0  0  0  0  0  0  0  0
  1  2  1  0  0  0  0
  2  3  1  0  0  0  0
  2  4  1  0  0  0  0
  4  5  1  0  0  0  0
  4  6  1  0  0  0  0
  1  7  1  0  0  0  0
  1  8  1  0  0  0  0
  1  9  1  0  0  0  0
  2 10  1  0  0  0  0
  3 11  1  0  0  0  0
  3 12  1  0  0  0  0
  3 13  1  0  0  0  0
  4 14  1  0  0  0  0
  5 15  1  0  0  0  0
  5 16  1  0  0  0  0
  5 17  1  0  0  0  0
  6 18  1  0  0  0  0
  6 19  1  0  0  0  0
  6 20  1  0  0  0  0
M  END
