 xtb: 6.7.1 (edcfbbe)
          04062511353D

 27 27  0     0  0            999 V2000
    3.6840   -0.2824    0.1443 C   0  0  0  0  0  0  0  0  0  0  0  0
    2.2055   -0.1874    0.0052 C   0  0  0  0  0  0  0  0  0  0  0  0
    1.5605    0.9893   -0.0320 C   0  0  0  0  0  0  0  0  0  0  0  0
    0.1261    1.1230   -0.2162 C   0  0  0  0  0  0  0  0  0  0  0  0
   -0.4142    2.2254   -0.2536 O   0  0  0  0  0  0  0  0  0  0  0  0
   -0.6484   -0.1682   -0.4242 C   0  0  0  0  0  0  0  0  0  0  0  0
   -0.5351   -0.3902   -1.4956 H   0  0  0  0  0  0  0  0  0  0  0  0
    0.0098   -1.2990    0.3654 C   0  0  0  0  0  0  0  0  0  0  0  0
    1.4532   -1.4751   -0.0934 C   0  0  0  0  0  0  0  0  0  0  0  0
   -2.1511    0.0288   -0.1538 C   0  0  0  0  0  0  0  0  0  0  0  0
   -2.9844   -1.1024   -0.7515 C   0  0  0  0  0  0  0  0  0  0  0  0
   -2.4513    0.1853    1.3358 C   0  0  0  0  0  0  0  0  0  0  0  0
    4.1525    0.6956    0.0872 H   0  0  0  0  0  0  0  0  0  0  0  0
    4.0899   -0.9241   -0.6353 H   0  0  0  0  0  0  0  0  0  0  0  0
    3.9329   -0.7368    1.1024 H   0  0  0  0  0  0  0  0  0  0  0  0
    2.1003    1.9226    0.0550 H   0  0  0  0  0  0  0  0  0  0  0  0
    0.0009   -1.0548    1.4287 H   0  0  0  0  0  0  0  0  0  0  0  0
   -0.5439   -2.2259    0.2186 H   0  0  0  0  0  0  0  0  0  0  0  0
    1.9527   -2.2437    0.4977 H   0  0  0  0  0  0  0  0  0  0  0  0
    1.4679   -1.8034   -1.1379 H   0  0  0  0  0  0  0  0  0  0  0  0
   -2.4302    0.9662   -0.6506 H   0  0  0  0  0  0  0  0  0  0  0  0
   -2.7697   -2.0457   -0.2559 H   0  0  0  0  0  0  0  0  0  0  0  0
   -2.7825   -1.2117   -1.8145 H   0  0  0  0  0  0  0  0  0  0  0  0
   -4.0427   -0.8881   -0.6254 H   0  0  0  0  0  0  0  0  0  0  0  0
   -1.8310    0.9691    1.7662 H   0  0  0  0  0  0  0  0  0  0  0  0
   -2.2733   -0.7438    1.8709 H   0  0  0  0  0  0  0  0  0  0  0  0
   -3.4930    0.4643    1.4752 H   0  0  0  0  0  0  0  0  0  0  0  0
  1  2  1  0  0  0  0
  2  3  2  0  0  0  0
  3  4  1  0  0  0  0
  4  5  2  0  0  0  0
  4  6  1  0  0  0  0
  6  7  1  0  0  0  0
  6  8  1  0  0  0  0
  2  9  1  0  0  0  0
  8  9  1  0  0  0  0
  6 10  1  0  0  0  0
 10 11  1  0  0  0  0
 10 12  1  0  0  0  0
  1 13  1  0  0  0  0
  1 14  1  0  0  0  0
  1 15  1  0  0  0  0
  3 16  1  0  0  0  0
  8 17  1  0  0  0  0
  8 18  1  0  0  0  0
  9 19  1  0  0  0  0
  9 20  1  0  0  0  0
 10 21  1  0  0  0  0
 11 22  1  0  0  0  0
 11 23  1  0  0  0  0
 11 24  1  0  0  0  0
 12 25  1  0  0  0  0
 12 26  1  0  0  0  0
 12 27  1  0  0  0  0
M  END
