 xtb: 6.7.1 (edcfbbe)
          04052503223D

 18 17  0     0  0            999 V2000
    2.1476   -0.0075    0.0185 C   0  0  0  0  0  0  0  0  0  0  0  0
    0.8743   -0.6880    0.5075 C   0  0  0  0  0  0  0  0  0  0  0  0
   -0.4171    0.0003    0.0180 C   0  0  0  0  0  0  0  0  0  0  0  0
   -0.4917    1.4544    0.5001 C   0  0  0  0  0  0  0  0  0  0  0  0
   -1.6267   -0.7766    0.5418 C   0  0  0  0  0  0  0  0  0  0  0  0
   -0.4047    0.0067   -1.4129 O   0  0  0  0  0  0  0  0  0  0  0  0
    3.0118   -0.6282    0.2414 H   0  0  0  0  0  0  0  0  0  0  0  0
    2.2853    0.9571    0.4987 H   0  0  0  0  0  0  0  0  0  0  0  0
    2.0924    0.1425   -1.0570 H   0  0  0  0  0  0  0  0  0  0  0  0
    0.8639   -0.7201    1.5978 H   0  0  0  0  0  0  0  0  0  0  0  0
    0.8626   -1.7159    0.1375 H   0  0  0  0  0  0  0  0  0  0  0  0
    0.2730    2.0457    0.0056 H   0  0  0  0  0  0  0  0  0  0  0  0
   -1.4616    1.8777    0.2498 H   0  0  0  0  0  0  0  0  0  0  0  0
   -0.3483    1.5049    1.5751 H   0  0  0  0  0  0  0  0  0  0  0  0
   -2.5503   -0.3259    0.1838 H   0  0  0  0  0  0  0  0  0  0  0  0
   -1.5853   -1.8136    0.2143 H   0  0  0  0  0  0  0  0  0  0  0  0
   -1.6370   -0.7601    1.6280 H   0  0  0  0  0  0  0  0  0  0  0  0
   -1.1789   -0.4623   -1.7454 H   0  0  0  0  0  0  0  0  0  0  0  0
  1  2  1  0  0  0  0
  2  3  1  0  0  0  0
  3  4  1  0  0  0  0
  3  5  1  0  0  0  0
  3  6  1  0  0  0  0
  1  7  1  0  0  0  0
  1  8  1  0  0  0  0
  1  9  1  0  0  0  0
  2 10  1  0  0  0  0
  2 11  1  0  0  0  0
  4 12  1  0  0  0  0
  4 13  1  0  0  0  0
  4 14  1  0  0  0  0
  5 15  1  0  0  0  0
  5 16  1  0  0  0  0
  5 17  1  0  0  0  0
  6 18  1  0  0  0  0
M  END
