 xtb: 6.7.1 (edcfbbe)
          04042517583D

 13 12  0     0  0            999 V2000
   -1.9492   -0.1239   -0.0312 C   0  0  0  0  0  0  0  0  0  0  0  0
   -0.5723    0.5278    0.0033 C   0  0  0  0  0  0  0  0  0  0  0  0
    0.5476   -0.5120    0.0065 C   0  0  0  0  0  0  0  0  0  0  0  0
    1.8854    0.0913   -0.0326 N   0  0  0  0  0  0  0  0  0  0  0  0
   -2.0565   -0.7355   -0.9238 H   0  0  0  0  0  0  0  0  0  0  0  0
   -2.0921   -0.7603    0.8393 H   0  0  0  0  0  0  0  0  0  0  0  0
   -2.7277    0.6345   -0.0360 H   0  0  0  0  0  0  0  0  0  0  0  0
   -0.4868    1.1513    0.8977 H   0  0  0  0  0  0  0  0  0  0  0  0
   -0.4508    1.1719   -0.8703 H   0  0  0  0  0  0  0  0  0  0  0  0
    0.4324   -1.1584    0.8844 H   0  0  0  0  0  0  0  0  0  0  0  0
    0.4459   -1.1480   -0.8819 H   0  0  0  0  0  0  0  0  0  0  0  0
    2.4458   -0.2337    0.7449 H   0  0  0  0  0  0  0  0  0  0  0  0
    1.8109    1.0983    0.0540 H   0  0  0  0  0  0  0  0  0  0  0  0
  1  2  1  0  0  0  0
  2  3  1  0  0  0  0
  3  4  1  0  0  0  0
  1  5  1  0  0  0  0
  1  6  1  0  0  0  0
  1  7  1  0  0  0  0
  2  8  1  0  0  0  0
  2  9  1  0  0  0  0
  3 10  1  0  0  0  0
  3 11  1  0  0  0  0
  4 12  1  0  0  0  0
  4 13  1  0  0  0  0
M  END
