 xtb: 6.7.1 (edcfbbe)
          04062518003D

 24 24  0     0  0            999 V2000
   -2.5551   -0.6627   -0.3393 C   0  0  0  0  0  0  0  0  0  0  0  0
   -1.1756   -0.3018    0.2208 C   0  0  0  0  0  0  0  0  0  0  0  0
   -1.2271   -0.2817    1.3214 H   0  0  0  0  0  0  0  0  0  0  0  0
   -0.7104    1.0777   -0.2907 C   0  0  0  0  0  0  0  0  0  0  0  0
   -0.7249    1.0807   -1.3860 H   0  0  0  0  0  0  0  0  0  0  0  0
    0.7290    1.3383    0.1780 C   0  0  0  0  0  0  0  0  0  0  0  0
    0.7417    1.4242    1.2784 H   0  0  0  0  0  0  0  0  0  0  0  0
    1.6303    0.1593   -0.2104 C   0  0  0  0  0  0  0  0  0  0  0  0
    1.6952    0.1135   -1.3088 H   0  0  0  0  0  0  0  0  0  0  0  0
    1.0236   -1.1592    0.3085 C   0  0  0  0  0  0  0  0  0  0  0  0
    1.0255   -1.1385    1.4125 H   0  0  0  0  0  0  0  0  0  0  0  0
   -0.2808   -1.3247   -0.1842 O   0  0  0  0  0  0  0  0  0  0  0  0
    1.7805   -2.2534   -0.0684 O   0  0  0  0  0  0  0  0  0  0  0  0
    2.8998    0.3853    0.3505 O   0  0  0  0  0  0  0  0  0  0  0  0
    1.1806    2.5352   -0.4005 O   0  0  0  0  0  0  0  0  0  0  0  0
   -1.5965    2.0902    0.0940 O   0  0  0  0  0  0  0  0  0  0  0  0
   -3.1202   -1.7730    0.3058 O   0  0  0  0  0  0  0  0  0  0  0  0
   -2.4562   -0.8418   -1.4164 H   0  0  0  0  0  0  0  0  0  0  0  0
   -3.2330    0.1761   -0.1752 H   0  0  0  0  0  0  0  0  0  0  0  0
    1.5410   -2.5116   -0.9728 H   0  0  0  0  0  0  0  0  0  0  0  0
    3.4373   -0.4155    0.2541 H   0  0  0  0  0  0  0  0  0  0  0  0
    2.1174    2.6486   -0.1787 H   0  0  0  0  0  0  0  0  0  0  0  0
   -1.4781    2.3007    1.0320 H   0  0  0  0  0  0  0  0  0  0  0  0
   -2.5340   -2.5336    0.1819 H   0  0  0  0  0  0  0  0  0  0  0  0
  1  2  1  0  0  0  0
  2  3  1  0  0  0  0
  2  4  1  0  0  0  0
  4  5  1  0  0  0  0
  4  6  1  0  0  0  0
  6  7  1  0  0  0  0
  6  8  1  0  0  0  0
  8  9  1  0  0  0  0
  8 10  1  0  0  0  0
 10 11  1  0  0  0  0
  2 12  1  0  0  0  0
 10 12  1  0  0  0  0
 10 13  1  0  0  0  0
  8 14  1  0  0  0  0
  6 15  1  0  0  0  0
  4 16  1  0  0  0  0
  1 17  1  0  0  0  0
  1 18  1  0  0  0  0
  1 19  1  0  0  0  0
 13 20  1  0  0  0  0
 14 21  1  0  0  0  0
 15 22  1  0  0  0  0
 16 23  1  0  0  0  0
 17 24  1  0  0  0  0
M  END
