 xtb: 6.7.1 (edcfbbe)
          04042519103D

 15 14  0     0  0            999 V2000
   -1.3143   -0.9285   -0.1379 C   0  0  0  0  0  0  0  0  0  0  0  0
   -0.4188    0.2974   -0.3127 C   0  0  0  0  0  0  0  0  0  0  0  0
   -1.1131    1.5437    0.2305 C   0  0  0  0  0  0  0  0  0  0  0  0
    0.9288    0.1087    0.3985 C   0  0  0  0  0  0  0  0  0  0  0  0
    1.7618   -0.8598   -0.2026 O   0  0  0  0  0  0  0  0  0  0  0  0
   -1.4892   -1.1213    0.9187 H   0  0  0  0  0  0  0  0  0  0  0  0
   -0.8668   -1.8118   -0.5873 H   0  0  0  0  0  0  0  0  0  0  0  0
   -2.2743   -0.7600   -0.6193 H   0  0  0  0  0  0  0  0  0  0  0  0
   -0.2128    0.4377   -1.3795 H   0  0  0  0  0  0  0  0  0  0  0  0
   -0.4955    2.4255    0.0799 H   0  0  0  0  0  0  0  0  0  0  0  0
   -1.3034    1.4341    1.2958 H   0  0  0  0  0  0  0  0  0  0  0  0
   -2.0625    1.6970   -0.2757 H   0  0  0  0  0  0  0  0  0  0  0  0
    1.5016    1.0386    0.3539 H   0  0  0  0  0  0  0  0  0  0  0  0
    0.7586   -0.1394    1.4554 H   0  0  0  0  0  0  0  0  0  0  0  0
    1.3280   -1.7223   -0.1510 H   0  0  0  0  0  0  0  0  0  0  0  0
  1  2  1  0  0  0  0
  2  3  1  0  0  0  0
  2  4  1  0  0  0  0
  4  5  1  0  0  0  0
  1  6  1  0  0  0  0
  1  7  1  0  0  0  0
  1  8  1  0  0  0  0
  2  9  1  0  0  0  0
  3 10  1  0  0  0  0
  3 11  1  0  0  0  0
  3 12  1  0  0  0  0
  4 13  1  0  0  0  0
  4 14  1  0  0  0  0
  5 15  1  0  0  0  0
M  END
