 xtb: 6.7.1 (edcfbbe)
          04052500023D

 16 15  0     0  0            999 V2000
    1.2559    1.4763   -0.1463 C   0  0  0  0  0  0  0  0  0  0  0  0
    0.7030    0.0873   -0.4538 C   0  0  0  0  0  0  0  0  0  0  0  0
    1.5030   -0.9947    0.2791 C   0  0  0  0  0  0  0  0  0  0  0  0
   -0.7698   -0.0020   -0.0986 C   0  0  0  0  0  0  0  0  0  0  0  0
   -1.3810    0.9357    0.3757 O   0  0  0  0  0  0  0  0  0  0  0  0
   -1.4321   -1.3237   -0.3648 C   0  0  0  0  0  0  0  0  0  0  0  0
    1.2014    1.6732    0.9221 H   0  0  0  0  0  0  0  0  0  0  0  0
    2.2910    1.5526   -0.4670 H   0  0  0  0  0  0  0  0  0  0  0  0
    0.6703    2.2378   -0.6562 H   0  0  0  0  0  0  0  0  0  0  0  0
    0.7759   -0.0952   -1.5320 H   0  0  0  0  0  0  0  0  0  0  0  0
    1.1886   -1.9902   -0.0173 H   0  0  0  0  0  0  0  0  0  0  0  0
    1.3779   -0.8896    1.3544 H   0  0  0  0  0  0  0  0  0  0  0  0
    2.5585   -0.8832    0.0455 H   0  0  0  0  0  0  0  0  0  0  0  0
   -2.5074   -1.1862   -0.4416 H   0  0  0  0  0  0  0  0  0  0  0  0
   -1.2349   -1.9813    0.4800 H   0  0  0  0  0  0  0  0  0  0  0  0
   -1.0413   -1.7876   -1.2643 H   0  0  0  0  0  0  0  0  0  0  0  0
  1  2  1  0  0  0  0
  2  3  1  0  0  0  0
  2  4  1  0  0  0  0
  4  5  2  0  0  0  0
  4  6  1  0  0  0  0
  1  7  1  0  0  0  0
  1  8  1  0  0  0  0
  1  9  1  0  0  0  0
  2 10  1  0  0  0  0
  3 11  1  0  0  0  0
  3 12  1  0  0  0  0
  3 13  1  0  0  0  0
  6 14  1  0  0  0  0
  6 15  1  0  0  0  0
  6 16  1  0  0  0  0
M  END
