 xtb: 6.7.1 (edcfbbe)
          04032521083D

 25 25  0     0  0            999 V2000
   -2.4452   -1.4443   -0.1793 C   0  0  0  0  0  0  0  0  0  0  0  0
   -1.9668    0.0022    0.0121 C   0  0  0  0  0  0  0  0  0  0  0  0
   -2.4697    0.8731   -1.1483 C   0  0  0  0  0  0  0  0  0  0  0  0
   -2.5772    0.5382    1.3103 C   0  0  0  0  0  0  0  0  0  0  0  0
   -0.4459    0.0255    0.0270 C   0  0  0  0  0  0  0  0  0  0  0  0
    0.2608   -0.4368   -1.0818 C   0  0  0  0  0  0  0  0  0  0  0  0
    1.6393   -0.4360   -1.1184 C   0  0  0  0  0  0  0  0  0  0  0  0
    2.3662    0.0351   -0.0301 C   0  0  0  0  0  0  0  0  0  0  0  0
    1.6801    0.4995    1.0821 C   0  0  0  0  0  0  0  0  0  0  0  0
    0.2956    0.4920    1.1041 C   0  0  0  0  0  0  0  0  0  0  0  0
    3.7275    0.0202   -0.1039 O   0  0  0  0  0  0  0  0  0  0  0  0
   -2.0725   -2.0725    0.6268 H   0  0  0  0  0  0  0  0  0  0  0  0
   -3.5321   -1.4822   -0.1739 H   0  0  0  0  0  0  0  0  0  0  0  0
   -2.0944   -1.8555   -1.1214 H   0  0  0  0  0  0  0  0  0  0  0  0
   -2.1170    1.8955   -1.0303 H   0  0  0  0  0  0  0  0  0  0  0  0
   -2.1159    0.4994   -2.1049 H   0  0  0  0  0  0  0  0  0  0  0  0
   -3.5571    0.8814   -1.1656 H   0  0  0  0  0  0  0  0  0  0  0  0
   -2.2908    1.5735    1.4782 H   0  0  0  0  0  0  0  0  0  0  0  0
   -3.6621    0.4960    1.2433 H   0  0  0  0  0  0  0  0  0  0  0  0
   -2.2692   -0.0618    2.1631 H   0  0  0  0  0  0  0  0  0  0  0  0
   -0.2692   -0.8094   -1.9449 H   0  0  0  0  0  0  0  0  0  0  0  0
    2.1745   -0.7970   -1.9831 H   0  0  0  0  0  0  0  0  0  0  0  0
    2.2253    0.8701    1.9388 H   0  0  0  0  0  0  0  0  0  0  0  0
   -0.1939    0.8623    1.9895 H   0  0  0  0  0  0  0  0  0  0  0  0
    4.1131    0.3727    0.7120 H   0  0  0  0  0  0  0  0  0  0  0  0
  1  2  1  0  0  0  0
  2  3  1  0  0  0  0
  2  4  1  0  0  0  0
  2  5  1  0  0  0  0
  5  6  4  0  0  0  0
  6  7  4  0  0  0  0
  7  8  4  0  0  0  0
  8  9  4  0  0  0  0
  5 10  4  0  0  0  0
  9 10  4  0  0  0  0
  8 11  1  0  0  0  0
  1 12  1  0  0  0  0
  1 13  1  0  0  0  0
  1 14  1  0  0  0  0
  3 15  1  0  0  0  0
  3 16  1  0  0  0  0
  3 17  1  0  0  0  0
  4 18  1  0  0  0  0
  4 19  1  0  0  0  0
  4 20  1  0  0  0  0
  6 21  1  0  0  0  0
  7 22  1  0  0  0  0
  9 23  1  0  0  0  0
 10 24  1  0  0  0  0
 11 25  1  0  0  0  0
M  END
