 xtb: 6.7.1 (edcfbbe)
          04032521553D

 12 11  0     0  0            999 V2000
   -1.4603    0.5456    1.3833 C   0  0  0  0  0  0  0  0  0  0  0  0
   -0.9847   -0.3269    0.2113 C   0  0  0  0  0  0  0  0  0  0  0  0
   -1.0750   -1.3976    0.4458 H   0  0  0  0  0  0  0  0  0  0  0  0
    0.5036   -0.0966   -0.0443 C   0  0  0  0  0  0  0  0  0  0  0  0
    0.7989    1.1720   -0.3587 F   0  0  0  0  0  0  0  0  0  0  0  0
    1.2502   -0.3981    1.0357 F   0  0  0  0  0  0  0  0  0  0  0  0
    0.9797   -0.8572   -1.0443 F   0  0  0  0  0  0  0  0  0  0  0  0
   -1.6123   -0.0330   -1.0100 O   0  0  0  0  0  0  0  0  0  0  0  0
   -0.6718    1.2168    1.7125 H   0  0  0  0  0  0  0  0  0  0  0  0
   -1.7658   -0.0699    2.2221 H   0  0  0  0  0  0  0  0  0  0  0  0
   -2.2987    1.1544    1.0584 H   0  0  0  0  0  0  0  0  0  0  0  0
   -2.5524   -0.2652   -0.9553 H   0  0  0  0  0  0  0  0  0  0  0  0
  1  2  1  0  0  0  0
  2  3  1  0  0  0  0
  2  4  1  0  0  0  0
  4  5  1  0  0  0  0
  4  6  1  0  0  0  0
  4  7  1  0  0  0  0
  2  8  1  0  0  0  0
  1  9  1  0  0  0  0
  1 10  1  0  0  0  0
  1 11  1  0  0  0  0
  8 12  1  0  0  0  0
M  END
