 xtb: 6.7.1 (edcfbbe)
          04042520023D

 16 16  0     0  0            999 V2000
   -2.7350    0.2115    0.6764 C   0  0  0  0  0  0  0  0  0  0  0  0
   -1.9346   -0.2299   -0.5514 C   0  0  0  0  0  0  0  0  0  0  0  0
   -0.4649   -0.1148   -0.2943 C   0  0  0  0  0  0  0  0  0  0  0  0
    0.1826    1.1228   -0.2549 C   0  0  0  0  0  0  0  0  0  0  0  0
    1.4742    1.2375    0.0036 N   0  0  0  0  0  0  0  0  0  0  0  0
    2.1460    0.1133    0.2255 C   0  0  0  0  0  0  0  0  0  0  0  0
    1.5167   -1.1214    0.1791 C   0  0  0  0  0  0  0  0  0  0  0  0
    0.2209   -1.2337   -0.0779 N   0  0  0  0  0  0  0  0  0  0  0  0
   -2.4909   -0.4151    1.5306 H   0  0  0  0  0  0  0  0  0  0  0  0
   -3.7988    0.1253    0.4750 H   0  0  0  0  0  0  0  0  0  0  0  0
   -2.5104    1.2446    0.9307 H   0  0  0  0  0  0  0  0  0  0  0  0
   -2.2012    0.3987   -1.4026 H   0  0  0  0  0  0  0  0  0  0  0  0
   -2.1650   -1.2684   -0.7868 H   0  0  0  0  0  0  0  0  0  0  0  0
   -0.3495    2.0454   -0.4408 H   0  0  0  0  0  0  0  0  0  0  0  0
    3.1996    0.2172    0.4381 H   0  0  0  0  0  0  0  0  0  0  0  0
    2.0512   -2.0451    0.3487 H   0  0  0  0  0  0  0  0  0  0  0  0
  1  2  1  0  0  0  0
  2  3  1  0  0  0  0
  3  4  4  0  0  0  0
  4  5  4  0  0  0  0
  5  6  4  0  0  0  0
  6  7  4  0  0  0  0
  3  8  4  0  0  0  0
  7  8  4  0  0  0  0
  1  9  1  0  0  0  0
  1 10  1  0  0  0  0
  1 11  1  0  0  0  0
  2 12  1  0  0  0  0
  2 13  1  0  0  0  0
  4 14  1  0  0  0  0
  6 15  1  0  0  0  0
  7 16  1  0  0  0  0
M  END
