 xtb: 6.7.1 (edcfbbe)
          04042520083D

 15 15  0     0  0            999 V2000
   -0.9955   -1.8116    0.0000 C   0  0  0  0  0  0  0  0  0  0  0  0
    0.3712   -1.6129   -0.0000 C   0  0  0  0  0  0  0  0  0  0  0  0
    0.8768   -0.3102    0.0000 C   0  0  0  0  0  0  0  0  0  0  0  0
    0.0047    0.7771   -0.0001 C   0  0  0  0  0  0  0  0  0  0  0  0
   -1.3697    0.5719   -0.0001 C   0  0  0  0  0  0  0  0  0  0  0  0
   -1.8640   -0.7322    0.0000 C   0  0  0  0  0  0  0  0  0  0  0  0
   -2.1774    1.6559    0.0000 O   0  0  0  0  0  0  0  0  0  0  0  0
    2.3169   -0.0839   -0.0000 C   0  0  0  0  0  0  0  0  0  0  0  0
    2.8656    0.9996    0.0000 O   0  0  0  0  0  0  0  0  0  0  0  0
   -1.3954   -2.8133    0.0002 H   0  0  0  0  0  0  0  0  0  0  0  0
    1.0504   -2.4506   -0.0000 H   0  0  0  0  0  0  0  0  0  0  0  0
    0.4013    1.7805   -0.0001 H   0  0  0  0  0  0  0  0  0  0  0  0
   -2.9305   -0.9024   -0.0000 H   0  0  0  0  0  0  0  0  0  0  0  0
   -3.1124    1.3967    0.0002 H   0  0  0  0  0  0  0  0  0  0  0  0
    2.9230   -1.0088    0.0001 H   0  0  0  0  0  0  0  0  0  0  0  0
  1  2  4  0  0  0  0
  2  3  4  0  0  0  0
  3  4  4  0  0  0  0
  4  5  4  0  0  0  0
  1  6  4  0  0  0  0
  5  6  4  0  0  0  0
  5  7  1  0  0  0  0
  3  8  1  0  0  0  0
  8  9  2  0  0  0  0
  1 10  1  0  0  0  0
  2 11  1  0  0  0  0
  4 12  1  0  0  0  0
  6 13  1  0  0  0  0
  7 14  1  0  0  0  0
  8 15  1  0  0  0  0
M  END
