 xtb: 6.7.1 (edcfbbe)
          04032521383D

 11 10  0     0  0            999 V2000
    0.9870    2.1107   -0.3809 C   0  0  0  0  0  0  0  0  0  0  0  0
    0.3425    0.8648    0.1987 C   0  0  0  0  0  0  0  0  0  0  0  0
    0.1010    0.9973    1.2550 H   0  0  0  0  0  0  0  0  0  0  0  0
   -0.8931    0.4651   -0.5838 C   0  0  0  0  0  0  0  0  0  0  0  0
   -1.7172   -0.9396    0.1735 Cl  0  0  0  0  0  0  0  0  0  0  0  0
    1.5330   -0.5019    0.1569 Cl  0  0  0  0  0  0  0  0  0  0  0  0
    0.2963    2.9450   -0.2986 H   0  0  0  0  0  0  0  0  0  0  0  0
    1.8937    2.3491    0.1665 H   0  0  0  0  0  0  0  0  0  0  0  0
    1.2394    1.9575   -1.4258 H   0  0  0  0  0  0  0  0  0  0  0  0
   -1.6136    1.2812   -0.5888 H   0  0  0  0  0  0  0  0  0  0  0  0
   -0.6410    0.1705   -1.6011 H   0  0  0  0  0  0  0  0  0  0  0  0
  1  2  1  0  0  0  0
  2  3  1  0  0  0  0
  2  4  1  0  0  0  0
  4  5  1  0  0  0  0
  2  6  1  0  0  0  0
  1  7  1  0  0  0  0
  1  8  1  0  0  0  0
  1  9  1  0  0  0  0
  4 10  1  0  0  0  0
  4 11  1  0  0  0  0
M  END
