 xtb: 6.7.1 (edcfbbe)
          04052516073D

 27 27  0     0  0            999 V2000
   -3.0614    0.7396   -0.5007 C   0  0  0  0  0  0  0  0  0  0  0  0
   -1.9269    0.4378    0.4800 C   0  0  0  0  0  0  0  0  0  0  0  0
   -2.3604    0.4061    1.4879 H   0  0  0  0  0  0  0  0  0  0  0  0
   -0.8142    1.4913    0.4430 C   0  0  0  0  0  0  0  0  0  0  0  0
    0.1772    1.1839   -0.6742 C   0  0  0  0  0  0  0  0  0  0  0  0
    0.8960   -0.1667   -0.4598 C   0  0  0  0  0  0  0  0  0  0  0  0
    0.9339   -0.6864   -1.4216 H   0  0  0  0  0  0  0  0  0  0  0  0
    0.1065   -1.0679    0.5117 C   0  0  0  0  0  0  0  0  0  0  0  0
   -1.3660   -0.9488    0.2500 C   0  0  0  0  0  0  0  0  0  0  0  0
   -2.0528   -1.8887   -0.1029 O   0  0  0  0  0  0  0  0  0  0  0  0
    2.3228    0.0407    0.0076 C   0  0  0  0  0  0  0  0  0  0  0  0
    2.6366    0.4755    1.2176 C   0  0  0  0  0  0  0  0  0  0  0  0
    3.3685   -0.2408   -1.0273 C   0  0  0  0  0  0  0  0  0  0  0  0
   -2.6718    0.8650   -1.5079 H   0  0  0  0  0  0  0  0  0  0  0  0
   -3.7677   -0.0872   -0.5114 H   0  0  0  0  0  0  0  0  0  0  0  0
   -3.5830    1.6473   -0.2109 H   0  0  0  0  0  0  0  0  0  0  0  0
   -1.2587    2.4736    0.2791 H   0  0  0  0  0  0  0  0  0  0  0  0
   -0.2887    1.5241    1.3970 H   0  0  0  0  0  0  0  0  0  0  0  0
   -0.3628    1.1575   -1.6223 H   0  0  0  0  0  0  0  0  0  0  0  0
    0.9175    1.9824   -0.7374 H   0  0  0  0  0  0  0  0  0  0  0  0
    0.4212   -2.1062    0.4010 H   0  0  0  0  0  0  0  0  0  0  0  0
    0.2937   -0.7531    1.5379 H   0  0  0  0  0  0  0  0  0  0  0  0
    3.6604    0.6371    1.5079 H   0  0  0  0  0  0  0  0  0  0  0  0
    1.9000    0.6936    1.9711 H   0  0  0  0  0  0  0  0  0  0  0  0
    3.3222   -1.2860   -1.3305 H   0  0  0  0  0  0  0  0  0  0  0  0
    3.1917    0.3694   -1.9121 H   0  0  0  0  0  0  0  0  0  0  0  0
    4.3641   -0.0299   -0.6476 H   0  0  0  0  0  0  0  0  0  0  0  0
  1  2  1  0  0  0  0
  2  3  1  0  0  0  0
  2  4  1  0  0  0  0
  4  5  1  0  0  0  0
  5  6  1  0  0  0  0
  6  7  1  0  0  0  0
  6  8  1  0  0  0  0
  2  9  1  0  0  0  0
  8  9  1  0  0  0  0
  9 10  2  0  0  0  0
  6 11  1  0  0  0  0
 11 12  2  0  0  0  0
 11 13  1  0  0  0  0
  1 14  1  0  0  0  0
  1 15  1  0  0  0  0
  1 16  1  0  0  0  0
  4 17  1  0  0  0  0
  4 18  1  0  0  0  0
  5 19  1  0  0  0  0
  5 20  1  0  0  0  0
  8 21  1  0  0  0  0
  8 22  1  0  0  0  0
 12 23  1  0  0  0  0
 12 24  1  0  0  0  0
 13 25  1  0  0  0  0
 13 26  1  0  0  0  0
 13 27  1  0  0  0  0
M  END
