14
 xtb: 6.7.1 (edcfbbe)
C           -0.37883696143862        1.40220511954735       -0.10399115055443
C            0.00011553974311        0.00010509989191        0.37330589714456
C           -1.02488694631178       -1.02887994243371       -0.10393200934779
C            1.40368826660187       -0.37334605605693       -0.10400567993974
H            0.33658666272265        2.15163262131966        0.25196827885167
H           -0.38972909937978        1.44245615249513       -1.20036195887420
H           -1.37439420505769        1.68876538460177        0.25224378558037
H            0.00030335635687        0.00028887847381        1.47221296258931
H           -1.05402887271271       -1.05814924666660       -1.20028965068555
H           -2.03157239328917       -0.78362052654712        0.25197651788204
H           -0.77579600355887       -2.03461335128479        0.25200774481387
H            1.69418495576333       -1.36777824438269        0.25218968978265
H            2.15031722659521        0.34499038778871        0.25197210451053
H            1.44399120655842       -0.38404663035949       -1.20037731963642
