 xtb: 6.7.1 (edcfbbe)
          04032521133D

  5  4  0     0  0            999 V2000
    0.0000   -0.0000   -0.0000 C   0  0  0  0  0  0  0  0  0  0  0  0
   -0.5569   -0.0024   -1.6786 Cl  0  0  0  0  0  0  0  0  0  0  0  0
   -0.6945    1.3870    0.8496 Cl  0  0  0  0  0  0  0  0  0  0  0  0
    1.7649    0.1102    0.0354 Cl  0  0  0  0  0  0  0  0  0  0  0  0
   -0.5134   -1.4949    0.7936 Cl  0  0  0  0  0  0  0  0  0  0  0  0
  1  2  1  0  0  0  0
  1  3  1  0  0  0  0
  1  4  1  0  0  0  0
  1  5  1  0  0  0  0
M  END
