 xtb: 6.7.1 (edcfbbe)
          04042523553D

 17 17  0     0  0            999 V2000
    2.7603    0.0019    0.7332 C   0  0  0  0  0  0  0  0  0  0  0  0
    1.9899   -0.0025   -0.5899 C   0  0  0  0  0  0  0  0  0  0  0  0
    0.5140   -0.0012   -0.3289 C   0  0  0  0  0  0  0  0  0  0  0  0
   -0.1937    1.1871   -0.1810 C   0  0  0  0  0  0  0  0  0  0  0  0
   -1.5481    1.1327    0.1002 C   0  0  0  0  0  0  0  0  0  0  0  0
   -2.2234    0.0014    0.2412 N   0  0  0  0  0  0  0  0  0  0  0  0
   -1.5499   -1.1311    0.1026 C   0  0  0  0  0  0  0  0  0  0  0  0
   -0.1955   -1.1882   -0.1785 C   0  0  0  0  0  0  0  0  0  0  0  0
    2.5094    0.8858    1.3151 H   0  0  0  0  0  0  0  0  0  0  0  0
    3.8304    0.0008    0.5445 H   0  0  0  0  0  0  0  0  0  0  0  0
    2.5088   -0.8778    1.3212 H   0  0  0  0  0  0  0  0  0  0  0  0
    2.2616   -0.8907   -1.1623 H   0  0  0  0  0  0  0  0  0  0  0  0
    2.2621    0.8817   -1.1683 H   0  0  0  0  0  0  0  0  0  0  0  0
    0.3027    2.1394   -0.2867 H   0  0  0  0  0  0  0  0  0  0  0  0
   -2.1302    2.0370    0.2193 H   0  0  0  0  0  0  0  0  0  0  0  0
   -2.1333   -2.0343    0.2237 H   0  0  0  0  0  0  0  0  0  0  0  0
    0.2995   -2.1415   -0.2820 H   0  0  0  0  0  0  0  0  0  0  0  0
  1  2  1  0  0  0  0
  2  3  1  0  0  0  0
  3  4  4  0  0  0  0
  4  5  4  0  0  0  0
  5  6  4  0  0  0  0
  6  7  4  0  0  0  0
  3  8  4  0  0  0  0
  7  8  4  0  0  0  0
  1  9  1  0  0  0  0
  1 10  1  0  0  0  0
  1 11  1  0  0  0  0
  2 12  1  0  0  0  0
  2 13  1  0  0  0  0
  4 14  1  0  0  0  0
  5 15  1  0  0  0  0
  7 16  1  0  0  0  0
  8 17  1  0  0  0  0
M  END
