 xtb: 6.7.1 (edcfbbe)
          04032521503D

 13 13  0     0  0            999 V2000
    2.3937    0.0551   -0.0004 C   0  0  0  0  0  0  0  0  0  0  0  0
    0.9033    0.0152    0.0009 C   0  0  0  0  0  0  0  0  0  0  0  0
    0.1323    1.1820    0.0007 C   0  0  0  0  0  0  0  0  0  0  0  0
   -1.1892    1.1566   -0.0002 N   0  0  0  0  0  0  0  0  0  0  0  0
   -1.7694   -0.0388   -0.0007 C   0  0  0  0  0  0  0  0  0  0  0  0
   -1.0163   -1.2025   -0.0001 C   0  0  0  0  0  0  0  0  0  0  0  0
    0.3095   -1.1751    0.0008 N   0  0  0  0  0  0  0  0  0  0  0  0
    2.7528    0.6161    0.8594 H   0  0  0  0  0  0  0  0  0  0  0  0
    2.7860   -0.9561    0.0338 H   0  0  0  0  0  0  0  0  0  0  0  0
    2.7507    0.5522   -0.8999 H   0  0  0  0  0  0  0  0  0  0  0  0
    0.5909    2.1610    0.0014 H   0  0  0  0  0  0  0  0  0  0  0  0
   -2.8492   -0.0489   -0.0013 H   0  0  0  0  0  0  0  0  0  0  0  0
   -1.4728   -2.1821    0.0002 H   0  0  0  0  0  0  0  0  0  0  0  0
  1  2  1  0  0  0  0
  2  3  4  0  0  0  0
  3  4  4  0  0  0  0
  4  5  4  0  0  0  0
  5  6  4  0  0  0  0
  2  7  4  0  0  0  0
  6  7  4  0  0  0  0
  1  8  1  0  0  0  0
  1  9  1  0  0  0  0
  1 10  1  0  0  0  0
  3 11  1  0  0  0  0
  5 12  1  0  0  0  0
  6 13  1  0  0  0  0
M  END
