 xtb: 6.7.1 (edcfbbe)
          04062518003D

 24 24  0     0  0            999 V2000
   -2.4649   -0.8544   -0.0850 C   0  0  0  0  0  0  0  0  0  0  0  0
   -1.0975   -0.5638    0.5526 C   0  0  0  0  0  0  0  0  0  0  0  0
   -1.0973   -0.9173    1.5977 H   0  0  0  0  0  0  0  0  0  0  0  0
   -0.7525    0.9458    0.5542 C   0  0  0  0  0  0  0  0  0  0  0  0
   -1.6259    1.5079    0.2039 H   0  0  0  0  0  0  0  0  0  0  0  0
    0.3997    1.2228   -0.4284 C   0  0  0  0  0  0  0  0  0  0  0  0
    0.6874    2.2794   -0.3165 H   0  0  0  0  0  0  0  0  0  0  0  0
    1.6242    0.3693   -0.0416 C   0  0  0  0  0  0  0  0  0  0  0  0
    2.3333    0.3306   -0.8761 H   0  0  0  0  0  0  0  0  0  0  0  0
    1.1822   -1.0879    0.2403 C   0  0  0  0  0  0  0  0  0  0  0  0
    1.2569   -1.2685    1.3354 H   0  0  0  0  0  0  0  0  0  0  0  0
   -0.1439   -1.3255   -0.1693 O   0  0  0  0  0  0  0  0  0  0  0  0
    2.0048   -1.9445   -0.4640 O   0  0  0  0  0  0  0  0  0  0  0  0
    2.3242    0.9316    1.0340 O   0  0  0  0  0  0  0  0  0  0  0  0
   -0.0671    0.9632   -1.7248 O   0  0  0  0  0  0  0  0  0  0  0  0
   -0.3344    1.3858    1.8271 O   0  0  0  0  0  0  0  0  0  0  0  0
   -2.7423   -0.0588   -1.2067 O   0  0  0  0  0  0  0  0  0  0  0  0
   -3.2611   -0.6487    0.6331 H   0  0  0  0  0  0  0  0  0  0  0  0
   -2.4838   -1.9196   -0.3498 H   0  0  0  0  0  0  0  0  0  0  0  0
    1.6268   -2.8383   -0.4565 H   0  0  0  0  0  0  0  0  0  0  0  0
    1.6877    1.1665    1.7316 H   0  0  0  0  0  0  0  0  0  0  0  0
    0.6220    1.1728   -2.3707 H   0  0  0  0  0  0  0  0  0  0  0  0
   -1.1009    1.5726    2.3863 H   0  0  0  0  0  0  0  0  0  0  0  0
   -1.9641   -0.0515   -1.7868 H   0  0  0  0  0  0  0  0  0  0  0  0
  1  2  1  0  0  0  0
  2  3  1  0  0  0  0
  2  4  1  0  0  0  0
  4  5  1  0  0  0  0
  4  6  1  0  0  0  0
  6  7  1  0  0  0  0
  6  8  1  0  0  0  0
  8  9  1  0  0  0  0
  8 10  1  0  0  0  0
 10 11  1  0  0  0  0
  2 12  1  0  0  0  0
 10 12  1  0  0  0  0
 10 13  1  0  0  0  0
  8 14  1  0  0  0  0
  6 15  1  0  0  0  0
  4 16  1  0  0  0  0
  1 17  1  0  0  0  0
  1 18  1  0  0  0  0
  1 19  1  0  0  0  0
 13 20  1  0  0  0  0
 14 21  1  0  0  0  0
 15 22  1  0  0  0  0
 16 23  1  0  0  0  0
 17 24  1  0  0  0  0
M  END
