9
 xtb: 6.7.1 (edcfbbe)
C           -1.44755343318540       -0.09235181387848       -0.00026025465504
C            0.04829412395369        0.05720814133739       -0.00071832924342
O            0.58440063380789        1.18045751890656        0.00057101562828
N            0.77042856655565       -1.07715758254465       -0.00026907997483
H           -1.77816147617745       -1.13255505574761       -0.01749853877794
H           -1.84595812632061        0.39965750067643        0.89229335283691
H           -1.85075266171712        0.43197672801521       -0.87172554687798
H            1.77890367765057       -1.02680357742781        0.00236279184656
H            0.32286443513656       -1.97995007290467       -0.00073244662938
