 xtb: 6.7.1 (edcfbbe)
          04052518533D

 23 23  0     0  0            999 V2000
   -2.2286   -0.7512   -1.0997 C   0  0  0  0  0  0  0  0  0  0  0  0
   -1.7794    0.0033    0.1145 C   0  0  0  0  0  0  0  0  0  0  0  0
   -2.5666    0.5953    0.8314 O   0  0  0  0  0  0  0  0  0  0  0  0
   -0.2954    0.0372    0.4051 C   0  0  0  0  0  0  0  0  0  0  0  0
    0.3319    1.1769   -0.4174 C   0  0  0  0  0  0  0  0  0  0  0  0
    1.8097    1.3226   -0.0667 C   0  0  0  0  0  0  0  0  0  0  0  0
    2.5526    0.0136   -0.3175 C   0  0  0  0  0  0  0  0  0  0  0  0
    1.9191   -1.1208    0.4828 C   0  0  0  0  0  0  0  0  0  0  0  0
    0.4436   -1.2706    0.1195 C   0  0  0  0  0  0  0  0  0  0  0  0
   -3.2738   -0.5343   -1.3030 H   0  0  0  0  0  0  0  0  0  0  0  0
   -1.6172   -0.4908   -1.9582 H   0  0  0  0  0  0  0  0  0  0  0  0
   -2.1161   -1.8167   -0.9118 H   0  0  0  0  0  0  0  0  0  0  0  0
   -0.1857    0.2925    1.4655 H   0  0  0  0  0  0  0  0  0  0  0  0
    0.2319    0.9560   -1.4816 H   0  0  0  0  0  0  0  0  0  0  0  0
   -0.1986    2.1092   -0.2119 H   0  0  0  0  0  0  0  0  0  0  0  0
    2.2477    2.1220   -0.6670 H   0  0  0  0  0  0  0  0  0  0  0  0
    1.9070    1.6010    0.9847 H   0  0  0  0  0  0  0  0  0  0  0  0
    2.5123   -0.2275   -1.3819 H   0  0  0  0  0  0  0  0  0  0  0  0
    3.6016    0.1247   -0.0385 H   0  0  0  0  0  0  0  0  0  0  0  0
    2.4432   -2.0563    0.2804 H   0  0  0  0  0  0  0  0  0  0  0  0
    2.0126   -0.9086    1.5501 H   0  0  0  0  0  0  0  0  0  0  0  0
    0.3649   -1.5214   -0.9384 H   0  0  0  0  0  0  0  0  0  0  0  0
   -0.0005   -2.0805    0.7014 H   0  0  0  0  0  0  0  0  0  0  0  0
  1  2  1  0  0  0  0
  2  3  2  0  0  0  0
  2  4  1  0  0  0  0
  4  5  1  0  0  0  0
  5  6  1  0  0  0  0
  6  7  1  0  0  0  0
  7  8  1  0  0  0  0
  4  9  1  0  0  0  0
  8  9  1  0  0  0  0
  1 10  1  0  0  0  0
  1 11  1  0  0  0  0
  1 12  1  0  0  0  0
  4 13  1  0  0  0  0
  5 14  1  0  0  0  0
  5 15  1  0  0  0  0
  6 16  1  0  0  0  0
  6 17  1  0  0  0  0
  7 18  1  0  0  0  0
  7 19  1  0  0  0  0
  8 20  1  0  0  0  0
  8 21  1  0  0  0  0
  9 22  1  0  0  0  0
  9 23  1  0  0  0  0
M  END
