 xtb: 6.7.1 (edcfbbe)
          04052503223D

 18 17  0     0  0            999 V2000
    1.8652   -1.0665    0.0477 C   0  0  0  0  0  0  0  0  0  0  0  0
    1.1048    0.1773    0.4959 C   0  0  0  0  0  0  0  0  0  0  0  0
   -0.3601    0.2106    0.0133 C   0  0  0  0  0  0  0  0  0  0  0  0
   -1.0279    1.4959    0.5199 C   0  0  0  0  0  0  0  0  0  0  0  0
   -1.1424   -1.0075    0.5073 C   0  0  0  0  0  0  0  0  0  0  0  0
   -0.4122    0.1635   -1.4104 O   0  0  0  0  0  0  0  0  0  0  0  0
    1.7118   -1.2337   -1.0162 H   0  0  0  0  0  0  0  0  0  0  0  0
    1.5262   -1.9462    0.5874 H   0  0  0  0  0  0  0  0  0  0  0  0
    2.9295   -0.9417    0.2313 H   0  0  0  0  0  0  0  0  0  0  0  0
    1.6113    1.0633    0.1034 H   0  0  0  0  0  0  0  0  0  0  0  0
    1.1142    0.2456    1.5844 H   0  0  0  0  0  0  0  0  0  0  0  0
   -0.4547    2.3712    0.2206 H   0  0  0  0  0  0  0  0  0  0  0  0
   -2.0304    1.5771    0.1061 H   0  0  0  0  0  0  0  0  0  0  0  0
   -1.0964    1.4807    1.6035 H   0  0  0  0  0  0  0  0  0  0  0  0
   -2.1922   -0.8943    0.2500 H   0  0  0  0  0  0  0  0  0  0  0  0
   -0.7712   -1.9054    0.0230 H   0  0  0  0  0  0  0  0  0  0  0  0
   -1.0453   -1.1077    1.5837 H   0  0  0  0  0  0  0  0  0  0  0  0
    0.0021    0.9614   -1.7649 H   0  0  0  0  0  0  0  0  0  0  0  0
  1  2  1  0  0  0  0
  2  3  1  0  0  0  0
  3  4  1  0  0  0  0
  3  5  1  0  0  0  0
  3  6  1  0  0  0  0
  1  7  1  0  0  0  0
  1  8  1  0  0  0  0
  1  9  1  0  0  0  0
  2 10  1  0  0  0  0
  2 11  1  0  0  0  0
  4 12  1  0  0  0  0
  4 13  1  0  0  0  0
  4 14  1  0  0  0  0
  5 15  1  0  0  0  0
  5 16  1  0  0  0  0
  5 17  1  0  0  0  0
  6 18  1  0  0  0  0
M  END
