 xtb: 6.7.1 (edcfbbe)
          04032522113D

 11 10  0     0  0            999 V2000
   -2.9021   -0.0582    0.0021 C   0  0  0  0  0  0  0  0  0  0  0  0
   -1.6630    0.6639    0.0012 O   0  0  0  0  0  0  0  0  0  0  0  0
   -0.5459   -0.0438   -0.0015 C   0  0  0  0  0  0  0  0  0  0  0  0
   -0.5020   -1.2504   -0.0023 O   0  0  0  0  0  0  0  0  0  0  0  0
    0.6530    0.8822   -0.0038 C   0  0  0  0  0  0  0  0  0  0  0  0
    2.1608   -0.0662    0.0018 Cl  0  0  0  0  0  0  0  0  0  0  0  0
   -3.6777    0.7007    0.0033 H   0  0  0  0  0  0  0  0  0  0  0  0
   -2.9657   -0.6878    0.8896 H   0  0  0  0  0  0  0  0  0  0  0  0
   -2.9675   -0.6868   -0.8861 H   0  0  0  0  0  0  0  0  0  0  0  0
    0.6398    1.5122    0.8852 H   0  0  0  0  0  0  0  0  0  0  0  0
    0.6419    1.5044   -0.8984 H   0  0  0  0  0  0  0  0  0  0  0  0
  1  2  1  0  0  0  0
  2  3  1  0  0  0  0
  3  4  2  0  0  0  0
  3  5  1  0  0  0  0
  5  6  1  0  0  0  0
  1  7  1  0  0  0  0
  1  8  1  0  0  0  0
  1  9  1  0  0  0  0
  5 10  1  0  0  0  0
  5 11  1  0  0  0  0
M  END
