 xtb: 6.7.1 (edcfbbe)
          04052500073D

 17 16  0     0  0            999 V2000
    2.1403    1.0175   -0.5621 C   0  0  0  0  0  0  0  0  0  0  0  0
    1.1693   -0.1051   -0.2292 C   0  0  0  0  0  0  0  0  0  0  0  0
    1.6958   -1.0235    0.8674 C   0  0  0  0  0  0  0  0  0  0  0  0
   -0.0562    0.5195    0.2186 O   0  0  0  0  0  0  0  0  0  0  0  0
   -1.2077   -0.0995    0.0120 C   0  0  0  0  0  0  0  0  0  0  0  0
   -1.3046   -1.1787   -0.5391 O   0  0  0  0  0  0  0  0  0  0  0  0
   -2.3668    0.7028    0.5260 C   0  0  0  0  0  0  0  0  0  0  0  0
    1.7153    1.6699   -1.3197 H   0  0  0  0  0  0  0  0  0  0  0  0
    2.3437    1.6025    0.3301 H   0  0  0  0  0  0  0  0  0  0  0  0
    3.0678    0.5960   -0.9352 H   0  0  0  0  0  0  0  0  0  0  0  0
    0.9295   -0.6957   -1.1230 H   0  0  0  0  0  0  0  0  0  0  0  0
    1.8677   -0.4534    1.7768 H   0  0  0  0  0  0  0  0  0  0  0  0
    2.6273   -1.4781    0.5462 H   0  0  0  0  0  0  0  0  0  0  0  0
    0.9732   -1.8104    1.0728 H   0  0  0  0  0  0  0  0  0  0  0  0
   -2.9442    1.0615   -0.3229 H   0  0  0  0  0  0  0  0  0  0  0  0
   -2.0058    1.5420    1.1101 H   0  0  0  0  0  0  0  0  0  0  0  0
   -3.0105    0.0618    1.1215 H   0  0  0  0  0  0  0  0  0  0  0  0
  1  2  1  0  0  0  0
  2  3  1  0  0  0  0
  2  4  1  0  0  0  0
  4  5  1  0  0  0  0
  5  6  2  0  0  0  0
  5  7  1  0  0  0  0
  1  8  1  0  0  0  0
  1  9  1  0  0  0  0
  1 10  1  0  0  0  0
  2 11  1  0  0  0  0
  3 12  1  0  0  0  0
  3 13  1  0  0  0  0
  3 14  1  0  0  0  0
  7 15  1  0  0  0  0
  7 16  1  0  0  0  0
  7 17  1  0  0  0  0
M  END
