 xtb: 6.7.1 (edcfbbe)
          04052519553D

 23 24  0     0  0            999 V2000
    4.4810   -0.2831   -0.0373 C   0  0  0  0  0  0  0  0  0  0  0  0
    3.6587   -1.1780    0.6261 C   0  0  0  0  0  0  0  0  0  0  0  0
    2.2911   -0.9697    0.6768 C   0  0  0  0  0  0  0  0  0  0  0  0
    1.7467    0.1395    0.0444 C   0  0  0  0  0  0  0  0  0  0  0  0
    2.5690    1.0453   -0.6160 C   0  0  0  0  0  0  0  0  0  0  0  0
    3.9339    0.8311   -0.6528 C   0  0  0  0  0  0  0  0  0  0  0  0
    0.3481    0.3961    0.0818 N   0  0  0  0  0  0  0  0  0  0  0  0
   -0.5870   -0.6294   -0.0845 C   0  0  0  0  0  0  0  0  0  0  0  0
   -0.2357   -1.7987   -0.2782 O   0  0  0  0  0  0  0  0  0  0  0  0
   -1.9415   -0.1904   -0.0293 C   0  0  0  0  0  0  0  0  0  0  0  0
   -2.3129    1.1310    0.1449 C   0  0  0  0  0  0  0  0  0  0  0  0
   -1.2082    2.0385    0.2613 C   0  0  0  0  0  0  0  0  0  0  0  0
    0.0231    1.6705    0.2243 N   0  0  0  0  0  0  0  0  0  0  0  0
   -3.5767    1.5518    0.1986 N   0  0  0  0  0  0  0  0  0  0  0  0
   -3.1461   -1.4363   -0.2224 Cl  0  0  0  0  0  0  0  0  0  0  0  0
    5.5456   -0.4534   -0.0718 H   0  0  0  0  0  0  0  0  0  0  0  0
    4.0793   -2.0429    1.1150 H   0  0  0  0  0  0  0  0  0  0  0  0
    1.6515   -1.6660    1.1947 H   0  0  0  0  0  0  0  0  0  0  0  0
    2.1280    1.9076   -1.0887 H   0  0  0  0  0  0  0  0  0  0  0  0
    4.5702    1.5335   -1.1676 H   0  0  0  0  0  0  0  0  0  0  0  0
   -1.3732    3.0959    0.3889 H   0  0  0  0  0  0  0  0  0  0  0  0
   -3.7847    2.5269    0.3216 H   0  0  0  0  0  0  0  0  0  0  0  0
   -4.3158    0.8748    0.1081 H   0  0  0  0  0  0  0  0  0  0  0  0
  1  2  4  0  0  0  0
  2  3  4  0  0  0  0
  3  4  4  0  0  0  0
  4  5  4  0  0  0  0
  1  6  4  0  0  0  0
  5  6  4  0  0  0  0
  4  7  1  0  0  0  0
  7  8  1  0  0  0  0
  8  9  2  0  0  0  0
  8 10  1  0  0  0  0
 10 11  4  0  0  0  0
 11 12  1  0  0  0  0
  7 13  1  0  0  0  0
 12 13  2  0  0  0  0
 11 14  4  0  0  0  0
 10 15  1  0  0  0  0
  1 16  1  0  0  0  0
  2 17  1  0  0  0  0
  3 18  1  0  0  0  0
  5 19  1  0  0  0  0
  6 20  1  0  0  0  0
 12 21  1  0  0  0  0
 14 22  1  0  0  0  0
 14 23  1  0  0  0  0
M  END
