 xtb: 6.7.1 (edcfbbe)
          04062518003D

 24 24  0     0  0            999 V2000
   -2.2170   -0.9568   -0.4235 C   0  0  0  0  0  0  0  0  0  0  0  0
   -1.1736   -0.1966    0.4107 C   0  0  0  0  0  0  0  0  0  0  0  0
   -1.6639    0.2331    1.2930 H   0  0  0  0  0  0  0  0  0  0  0  0
   -0.5808    0.9583   -0.4059 C   0  0  0  0  0  0  0  0  0  0  0  0
   -0.4327    0.6450   -1.4512 H   0  0  0  0  0  0  0  0  0  0  0  0
    0.7897    1.3211    0.1772 C   0  0  0  0  0  0  0  0  0  0  0  0
    0.6720    1.5097    1.2572 H   0  0  0  0  0  0  0  0  0  0  0  0
    1.7464    0.1374   -0.0314 C   0  0  0  0  0  0  0  0  0  0  0  0
    2.1060    0.1536   -1.0656 H   0  0  0  0  0  0  0  0  0  0  0  0
    0.9989   -1.2024    0.1756 C   0  0  0  0  0  0  0  0  0  0  0  0
    1.6306   -1.8642    0.7874 H   0  0  0  0  0  0  0  0  0  0  0  0
   -0.1679   -1.0538    0.9454 O   0  0  0  0  0  0  0  0  0  0  0  0
    0.7554   -1.7584   -1.0768 O   0  0  0  0  0  0  0  0  0  0  0  0
    2.8909    0.2454    0.7736 O   0  0  0  0  0  0  0  0  0  0  0  0
    1.2399    2.4863   -0.4686 O   0  0  0  0  0  0  0  0  0  0  0  0
   -1.4806    2.0327   -0.3443 O   0  0  0  0  0  0  0  0  0  0  0  0
   -2.8181   -2.0219    0.2662 O   0  0  0  0  0  0  0  0  0  0  0  0
   -1.7373   -1.3986   -1.2986 H   0  0  0  0  0  0  0  0  0  0  0  0
   -2.9625   -0.2241   -0.7585 H   0  0  0  0  0  0  0  0  0  0  0  0
    0.4263   -2.6656   -0.9787 H   0  0  0  0  0  0  0  0  0  0  0  0
    2.6451    0.1951    1.7096 H   0  0  0  0  0  0  0  0  0  0  0  0
    2.1554    2.6626   -0.2080 H   0  0  0  0  0  0  0  0  0  0  0  0
   -1.0336    2.8180   -0.6983 H   0  0  0  0  0  0  0  0  0  0  0  0
   -3.2640   -1.6857    1.0562 H   0  0  0  0  0  0  0  0  0  0  0  0
  1  2  1  0  0  0  0
  2  3  1  0  0  0  0
  2  4  1  0  0  0  0
  4  5  1  0  0  0  0
  4  6  1  0  0  0  0
  6  7  1  0  0  0  0
  6  8  1  0  0  0  0
  8  9  1  0  0  0  0
  8 10  1  0  0  0  0
 10 11  1  0  0  0  0
  2 12  1  0  0  0  0
 10 12  1  0  0  0  0
 10 13  1  0  0  0  0
  8 14  1  0  0  0  0
  6 15  1  0  0  0  0
  4 16  1  0  0  0  0
  1 17  1  0  0  0  0
  1 18  1  0  0  0  0
  1 19  1  0  0  0  0
 13 20  1  0  0  0  0
 14 21  1  0  0  0  0
 15 22  1  0  0  0  0
 16 23  1  0  0  0  0
 17 24  1  0  0  0  0
M  END
