 xtb: 6.7.1 (edcfbbe)
          04042519393D

 14 13  0     0  0            999 V2000
    2.4828   -0.4807    0.1986 C   0  0  0  0  0  0  0  0  0  0  0  0
    1.2454    0.2310   -0.3416 C   0  0  0  0  0  0  0  0  0  0  0  0
   -0.0236   -0.1942    0.3863 C   0  0  0  0  0  0  0  0  0  0  0  0
    0.0672   -0.0005    1.4575 H   0  0  0  0  0  0  0  0  0  0  0  0
   -0.4299   -1.6320    0.1325 C   0  0  0  0  0  0  0  0  0  0  0  0
   -1.3767    0.8898   -0.1596 Cl  0  0  0  0  0  0  0  0  0  0  0  0
    2.4421   -1.5461   -0.0063 H   0  0  0  0  0  0  0  0  0  0  0  0
    2.5687   -0.3340    1.2722 H   0  0  0  0  0  0  0  0  0  0  0  0
    3.3721   -0.0762   -0.2764 H   0  0  0  0  0  0  0  0  0  0  0  0
    1.1337    0.0245   -1.4074 H   0  0  0  0  0  0  0  0  0  0  0  0
    1.3718    1.3088   -0.2215 H   0  0  0  0  0  0  0  0  0  0  0  0
    0.3192   -2.2977    0.5518 H   0  0  0  0  0  0  0  0  0  0  0  0
   -1.3853   -1.8461    0.6042 H   0  0  0  0  0  0  0  0  0  0  0  0
   -0.5170   -1.8203   -0.9347 H   0  0  0  0  0  0  0  0  0  0  0  0
  1  2  1  0  0  0  0
  2  3  1  0  0  0  0
  3  4  1  0  0  0  0
  3  5  1  0  0  0  0
  3  6  1  0  0  0  0
  1  7  1  0  0  0  0
  1  8  1  0  0  0  0
  1  9  1  0  0  0  0
  2 10  1  0  0  0  0
  2 11  1  0  0  0  0
  5 12  1  0  0  0  0
  5 13  1  0  0  0  0
  5 14  1  0  0  0  0
M  END
