 xtb: 6.7.1 (edcfbbe)
          04062518003D

 24 24  0     0  0            999 V2000
   -1.7743   -0.6219   -1.1065 C   0  0  0  0  0  0  0  0  0  0  0  0
   -1.2475   -0.5097    0.3429 C   0  0  0  0  0  0  0  0  0  0  0  0
   -2.0730   -0.8095    1.0031 H   0  0  0  0  0  0  0  0  0  0  0  0
   -0.7993    0.9137    0.6987 C   0  0  0  0  0  0  0  0  0  0  0  0
   -1.5939    1.6177    0.4150 H   0  0  0  0  0  0  0  0  0  0  0  0
    0.4581    1.3251   -0.0866 C   0  0  0  0  0  0  0  0  0  0  0  0
    1.0468    1.9793    0.5721 H   0  0  0  0  0  0  0  0  0  0  0  0
    1.3395    0.1127   -0.4241 C   0  0  0  0  0  0  0  0  0  0  0  0
    1.0610   -0.2853   -1.4123 H   0  0  0  0  0  0  0  0  0  0  0  0
    1.1094   -1.0061    0.5979 C   0  0  0  0  0  0  0  0  0  0  0  0
    1.3728   -0.6285    1.6055 H   0  0  0  0  0  0  0  0  0  0  0  0
   -0.2226   -1.4643    0.6002 O   0  0  0  0  0  0  0  0  0  0  0  0
    1.9287   -2.0689    0.2441 O   0  0  0  0  0  0  0  0  0  0  0  0
    2.6801    0.5297   -0.4256 O   0  0  0  0  0  0  0  0  0  0  0  0
    0.0472    2.0123   -1.2418 O   0  0  0  0  0  0  0  0  0  0  0  0
   -0.4968    1.0372    2.0685 O   0  0  0  0  0  0  0  0  0  0  0  0
   -3.1341   -0.2727   -1.1962 O   0  0  0  0  0  0  0  0  0  0  0  0
   -1.7075   -1.6720   -1.4013 H   0  0  0  0  0  0  0  0  0  0  0  0
   -1.1719   -0.0156   -1.7875 H   0  0  0  0  0  0  0  0  0  0  0  0
    1.6701   -2.8562    0.7464 H   0  0  0  0  0  0  0  0  0  0  0  0
    3.2485   -0.2512   -0.5095 H   0  0  0  0  0  0  0  0  0  0  0  0
    0.8224    2.3976   -1.6750 H   0  0  0  0  0  0  0  0  0  0  0  0
   -1.2947    0.8855    2.5966 H   0  0  0  0  0  0  0  0  0  0  0  0
   -3.2251    0.6897   -1.2007 H   0  0  0  0  0  0  0  0  0  0  0  0
  1  2  1  0  0  0  0
  2  3  1  0  0  0  0
  2  4  1  0  0  0  0
  4  5  1  0  0  0  0
  4  6  1  0  0  0  0
  6  7  1  0  0  0  0
  6  8  1  0  0  0  0
  8  9  1  0  0  0  0
  8 10  1  0  0  0  0
 10 11  1  0  0  0  0
  2 12  1  0  0  0  0
 10 12  1  0  0  0  0
 10 13  1  0  0  0  0
  8 14  1  0  0  0  0
  6 15  1  0  0  0  0
  4 16  1  0  0  0  0
  1 17  1  0  0  0  0
  1 18  1  0  0  0  0
  1 19  1  0  0  0  0
 13 20  1  0  0  0  0
 14 21  1  0  0  0  0
 15 22  1  0  0  0  0
 16 23  1  0  0  0  0
 17 24  1  0  0  0  0
M  END
