 xtb: 6.7.1 (edcfbbe)
          04062518493D

 24 24  0     0  0            999 V2000
   -2.4035   -1.1445   -0.2949 C   0  0  0  0  0  0  0  0  0  0  0  0
   -1.0624   -0.6243    0.2494 C   0  0  0  0  0  0  0  0  0  0  0  0
   -1.0788   -0.6058    1.3527 H   0  0  0  0  0  0  0  0  0  0  0  0
   -0.7688    0.8006   -0.2474 C   0  0  0  0  0  0  0  0  0  0  0  0
   -0.8074    0.8053   -1.3486 H   0  0  0  0  0  0  0  0  0  0  0  0
    0.6407    1.2439    0.1770 C   0  0  0  0  0  0  0  0  0  0  0  0
    0.6603    1.3692    1.2709 H   0  0  0  0  0  0  0  0  0  0  0  0
    1.6805    0.1877   -0.2010 C   0  0  0  0  0  0  0  0  0  0  0  0
    1.7809    0.1702   -1.2951 H   0  0  0  0  0  0  0  0  0  0  0  0
    1.2220   -1.2056    0.2687 C   0  0  0  0  0  0  0  0  0  0  0  0
    1.2204   -1.2085    1.3801 H   0  0  0  0  0  0  0  0  0  0  0  0
   -0.0699   -1.5264   -0.1941 O   0  0  0  0  0  0  0  0  0  0  0  0
    2.1091   -2.1336   -0.2349 O   0  0  0  0  0  0  0  0  0  0  0  0
    2.8959    0.5232    0.4130 O   0  0  0  0  0  0  0  0  0  0  0  0
    0.9897    2.4491   -0.4532 O   0  0  0  0  0  0  0  0  0  0  0  0
   -1.6702    1.7385    0.2853 O   0  0  0  0  0  0  0  0  0  0  0  0
   -3.4963   -0.3751    0.1396 O   0  0  0  0  0  0  0  0  0  0  0  0
   -2.5080   -2.1972   -0.0162 H   0  0  0  0  0  0  0  0  0  0  0  0
   -2.3866   -1.0785   -1.3851 H   0  0  0  0  0  0  0  0  0  0  0  0
    1.7815   -3.0314   -0.0677 H   0  0  0  0  0  0  0  0  0  0  0  0
    3.5794   -0.0944    0.1118 H   0  0  0  0  0  0  0  0  0  0  0  0
    0.3233    3.1140   -0.2211 H   0  0  0  0  0  0  0  0  0  0  0  0
   -2.5772    1.4303    0.1056 H   0  0  0  0  0  0  0  0  0  0  0  0
   -3.7029   -0.5870    1.0613 H   0  0  0  0  0  0  0  0  0  0  0  0
  1  2  1  0  0  0  0
  2  3  1  0  0  0  0
  2  4  1  0  0  0  0
  4  5  1  0  0  0  0
  4  6  1  0  0  0  0
  6  7  1  0  0  0  0
  6  8  1  0  0  0  0
  8  9  1  0  0  0  0
  8 10  1  0  0  0  0
 10 11  1  0  0  0  0
  2 12  1  0  0  0  0
 10 12  1  0  0  0  0
 10 13  1  0  0  0  0
  8 14  1  0  0  0  0
  6 15  1  0  0  0  0
  4 16  1  0  0  0  0
  1 17  1  0  0  0  0
  1 18  1  0  0  0  0
  1 19  1  0  0  0  0
 13 20  1  0  0  0  0
 14 21  1  0  0  0  0
 15 22  1  0  0  0  0
 16 23  1  0  0  0  0
 17 24  1  0  0  0  0
M  END
