14
 xtb: 6.7.1 (edcfbbe)
C            0.72431091606561       -1.17513645405318        0.22005797825036
C           -0.72359261808587       -1.17558007747406       -0.22002345524034
O           -1.40078380163490       -0.00043330232290        0.25974313600457
C           -0.72432899852726        1.17513549218716       -0.22002856001352
C            0.72357497013368        1.17557654673665        0.22005133534432
O            1.40076450771595        0.00043047801935       -0.25971985862800
H            1.24995071264461       -2.03833849488795       -0.19853503022934
H            0.78775802879915       -1.21198544219114        1.31862214617368
H           -0.78701621135068       -1.21248460089059       -1.31858771880900
H           -1.24869165170606       -2.03910889170076        0.19857565119536
H           -0.78777497695490        1.21199108421192       -1.31859316923336
H           -1.24996881994807        2.03833551354980        0.19856893490516
H            1.24867313543114        2.03910565091308       -0.19854542484793
H            0.78700004134629        1.21247668782776        1.31861629894334
