15
 xtb: 6.7.1 (edcfbbe)
C           -1.37051458288157       -0.89243956965924        0.38431043166609
C           -0.58316597927269        0.07774081849156       -0.49662429982199
C           -0.69857522356963        1.51262853385735        0.02118795704539
C            0.87670816157759       -0.34947581839438       -0.64454597571085
O            1.59770452212533       -0.38321496751345        0.60386820081208
H           -2.42912783864144       -0.61648822080028        0.41682945557215
H           -0.99277965595817       -0.88130179762289        1.41218494586916
H           -1.29917433843862       -1.91868048745859        0.00853434678942
H           -1.00083420392501        0.04357053579736       -1.51310412906639
H           -1.74396029727431        1.83744486357503        0.03145936334369
H           -0.13291577724962        2.21115892228558       -0.60546771525142
H           -0.32312527531019        1.59393858048439        1.04850930695739
H            0.92855395131311       -1.36955667236422       -1.03980407110570
H            1.39022250528409        0.31691277580750       -1.35274776124966
H            1.66769651116492        0.52523045433395        0.92291397345487
