 xtb: 6.7.1 (edcfbbe)
          04062520053D

 27 27  0     0  0            999 V2000
   -3.4295    0.5948    0.0189 C   0  0  0  0  0  0  0  0  0  0  0  0
   -1.9341    0.5079    0.0458 C   0  0  0  0  0  0  0  0  0  0  0  0
   -1.1414    1.4901   -0.3613 C   0  0  0  0  0  0  0  0  0  0  0  0
    0.3543    1.4433   -0.3494 C   0  0  0  0  0  0  0  0  0  0  0  0
    0.8767    0.0078   -0.2344 C   0  0  0  0  0  0  0  0  0  0  0  0
    0.6647   -0.5059   -1.1781 H   0  0  0  0  0  0  0  0  0  0  0  0
    0.1108   -0.7061    0.8835 C   0  0  0  0  0  0  0  0  0  0  0  0
   -1.3817   -0.8074    0.5509 C   0  0  0  0  0  0  0  0  0  0  0  0
   -1.9319   -1.1035    1.4531 H   0  0  0  0  0  0  0  0  0  0  0  0
   -1.6565   -1.8623   -0.3647 O   0  0  0  0  0  0  0  0  0  0  0  0
    2.3717   -0.0262   -0.0059 C   0  0  0  0  0  0  0  0  0  0  0  0
    2.9352    0.4641    1.0870 C   0  0  0  0  0  0  0  0  0  0  0  0
    3.1763   -0.6510   -1.1042 C   0  0  0  0  0  0  0  0  0  0  0  0
   -3.8416   -0.3010   -0.4433 H   0  0  0  0  0  0  0  0  0  0  0  0
   -3.7625    1.4707   -0.5306 H   0  0  0  0  0  0  0  0  0  0  0  0
   -3.8170    0.6494    1.0360 H   0  0  0  0  0  0  0  0  0  0  0  0
   -1.5773    2.4168   -0.7110 H   0  0  0  0  0  0  0  0  0  0  0  0
    0.7429    1.9100   -1.2578 H   0  0  0  0  0  0  0  0  0  0  0  0
    0.7198    2.0352    0.4951 H   0  0  0  0  0  0  0  0  0  0  0  0
    0.5074   -1.7123    1.0330 H   0  0  0  0  0  0  0  0  0  0  0  0
    0.2229   -0.1527    1.8157 H   0  0  0  0  0  0  0  0  0  0  0  0
   -1.2105   -1.6694   -1.2006 H   0  0  0  0  0  0  0  0  0  0  0  0
    4.0012    0.4349    1.2353 H   0  0  0  0  0  0  0  0  0  0  0  0
    2.3627    0.9119    1.8810 H   0  0  0  0  0  0  0  0  0  0  0  0
    3.0011   -0.1257   -2.0423 H   0  0  0  0  0  0  0  0  0  0  0  0
    4.2385   -0.6213   -0.8783 H   0  0  0  0  0  0  0  0  0  0  0  0
    2.8761   -1.6891   -1.2425 H   0  0  0  0  0  0  0  0  0  0  0  0
  1  2  1  0  0  0  0
  2  3  2  0  0  0  0
  3  4  1  0  0  0  0
  4  5  1  0  0  0  0
  5  6  1  0  0  0  0
  5  7  1  0  0  0  0
  2  8  1  0  0  0  0
  7  8  1  0  0  0  0
  8  9  1  0  0  0  0
  8 10  1  0  0  0  0
  5 11  1  0  0  0  0
 11 12  2  0  0  0  0
 11 13  1  0  0  0  0
  1 14  1  0  0  0  0
  1 15  1  0  0  0  0
  1 16  1  0  0  0  0
  3 17  1  0  0  0  0
  4 18  1  0  0  0  0
  4 19  1  0  0  0  0
  7 20  1  0  0  0  0
  7 21  1  0  0  0  0
 10 22  1  0  0  0  0
 12 23  1  0  0  0  0
 12 24  1  0  0  0  0
 13 25  1  0  0  0  0
 13 26  1  0  0  0  0
 13 27  1  0  0  0  0
M  END
