 xtb: 6.7.1 (edcfbbe)
          04032521503D

 24 24  0     0  0            999 V2000
   -2.3993   -0.0001   -0.5366 C   0  0  0  0  0  0  0  0  0  0  0  0
   -1.3778    0.0000    0.5998 C   0  0  0  0  0  0  0  0  0  0  0  0
   -0.4955   -1.2523    0.5809 C   0  0  0  0  0  0  0  0  0  0  0  0
    0.4955   -1.2525   -0.5805 C   0  0  0  0  0  0  0  0  0  0  0  0
    1.3775    0.0000   -0.5999 C   0  0  0  0  0  0  0  0  0  0  0  0
    0.4955    1.2525   -0.5804 C   0  0  0  0  0  0  0  0  0  0  0  0
   -0.4956    1.2524    0.5809 C   0  0  0  0  0  0  0  0  0  0  0  0
    2.3997   -0.0001    0.5359 C   0  0  0  0  0  0  0  0  0  0  0  0
   -3.0333   -0.8816   -0.4708 H   0  0  0  0  0  0  0  0  0  0  0  0
   -3.0324    0.8822   -0.4719 H   0  0  0  0  0  0  0  0  0  0  0  0
   -1.9156   -0.0009   -1.5085 H   0  0  0  0  0  0  0  0  0  0  0  0
   -1.9411    0.0000    1.5417 H   0  0  0  0  0  0  0  0  0  0  0  0
    0.0530   -1.3113    1.5229 H   0  0  0  0  0  0  0  0  0  0  0  0
   -1.1266   -2.1415    0.5153 H   0  0  0  0  0  0  0  0  0  0  0  0
    1.1267   -2.1415   -0.5146 H   0  0  0  0  0  0  0  0  0  0  0  0
   -0.0530   -1.3119   -1.5225 H   0  0  0  0  0  0  0  0  0  0  0  0
    1.9403    0.0000   -1.5420 H   0  0  0  0  0  0  0  0  0  0  0  0
    1.1269    2.1415   -0.5143 H   0  0  0  0  0  0  0  0  0  0  0  0
   -0.0528    1.3122   -1.5224 H   0  0  0  0  0  0  0  0  0  0  0  0
    0.0527    1.3116    1.5229 H   0  0  0  0  0  0  0  0  0  0  0  0
   -1.1269    2.1416    0.5150 H   0  0  0  0  0  0  0  0  0  0  0  0
    3.0334   -0.8818    0.4699 H   0  0  0  0  0  0  0  0  0  0  0  0
    1.9165   -0.0007    1.5082 H   0  0  0  0  0  0  0  0  0  0  0  0
    3.0329    0.8821    0.4707 H   0  0  0  0  0  0  0  0  0  0  0  0
  1  2  1  0  0  0  0
  2  3  1  0  0  0  0
  3  4  1  0  0  0  0
  4  5  1  0  0  0  0
  5  6  1  0  0  0  0
  2  7  1  0  0  0  0
  6  7  1  0  0  0  0
  5  8  1  0  0  0  0
  1  9  1  0  0  0  0
  1 10  1  0  0  0  0
  1 11  1  0  0  0  0
  2 12  1  0  0  0  0
  3 13  1  0  0  0  0
  3 14  1  0  0  0  0
  4 15  1  0  0  0  0
  4 16  1  0  0  0  0
  5 17  1  0  0  0  0
  6 18  1  0  0  0  0
  6 19  1  0  0  0  0
  7 20  1  0  0  0  0
  7 21  1  0  0  0  0
  8 22  1  0  0  0  0
  8 23  1  0  0  0  0
  8 24  1  0  0  0  0
M  END
