13
 xtb: 6.7.1 (edcfbbe)
C            0.00521097588560        1.24877597478227        0.14081929104495
C            1.22902291253552        0.33951124883743       -0.11548347787350
C            0.66312935041622       -1.04525895134409        0.06987984881662
C           -0.67180527203039       -1.03968068816666        0.06986331346811
C           -1.22613812512570        0.34977018453229       -0.11550785532090
H            0.00902261343403        2.15088123791712       -0.47575233210622
H            0.00650908982361        1.56189544898683        1.18979863269886
H            1.61456351469362        0.45368431282704       -1.13889141735101
H            2.06440058271085        0.55550906518766        0.55891731723616
H            1.28478539462841       -1.93298022489365        0.14133652689068
H           -1.30084599474201       -1.92218473770533        0.14130188123175
H           -1.61070631881357        0.46716343544826       -1.13891616879325
H           -2.05968275407706        0.57271984420868        0.55889827660048
