14
 xtb: 6.7.1 (edcfbbe)
C           -2.57106202666217        0.49718443337222       -0.39229873711983
C           -1.40024027965241       -0.26547093097204        0.17168480633484
O           -0.18564159493319        0.43216836700359       -0.25729281711850
C            0.98286164625221       -0.10794135300374        0.13089070723817
O            1.05781376439310       -1.13107166860404        0.79428215876028
C            2.16140993912011        0.69223586992669       -0.32217837960114
H           -2.53618816412985        0.51874340540564       -1.48529769671601
H           -3.49858198335898        0.00316118663992       -0.08827328830515
H           -2.58999359196903        1.52410305343411       -0.01640151655466
H           -1.35836569763597       -1.29152110246529       -0.20517605692670
H           -1.41295741604806       -0.28891105119163        1.26548053143143
H            2.57146261221587        1.21344506260080        0.54983017194791
H            1.89376449958602        1.42624924368228       -1.08211635157215
H            2.93257815754141        0.01601995022699       -0.69749985227474
