19
 xtb: 6.7.1 (edcfbbe)
C           -2.41991514194127       -1.02323546299968        0.79396275385149
C           -1.73214024562028        0.01736411334807       -0.04862422956860
C           -2.46797314949579        0.87876406202972       -0.76940343772704
C           -0.24734637880853        0.03783624794550       -0.03642697064589
C            0.47021119481464       -0.87011267999403        0.75958873659349
C            1.86309476786149       -0.86698069398457        0.78544652839847
C            2.57873984872368        0.04399782052327        0.01660172335021
C            1.88343542161959        0.95316495844638       -0.78148424194977
C            0.49571304950347        0.94967232838932       -0.80851705100190
H           -2.16443955984151       -0.91095709200797        1.85395525269678
H           -3.50367071905149       -0.93957996895002        0.69235820109188
H           -2.12302259401364       -2.03641337147185        0.49973985212370
H           -2.03585290784684        1.65397604712373       -1.39265207847267
H           -3.55202579068445        0.82311324950125       -0.74608679653091
H           -0.05685314809324       -1.59291737290584        1.37117062548606
H            2.38715491696890       -1.58293566955477        1.41129357880863
H            3.66398587858692        0.04786914999398        0.03550517632226
H            2.42739038088036        1.67038482879708       -1.38868933555756
H           -0.00983123864819        1.66841352893954       -1.44368119845704
