 xtb: 6.7.1 (edcfbbe)
          04042523583D

 18 18  0     0  0            999 V2000
   -3.3745    0.6178    0.0007 C   0  0  0  0  0  0  0  0  0  0  0  0
   -1.9541    0.7607    0.0006 O   0  0  0  0  0  0  0  0  0  0  0  0
   -1.2316   -0.3593   -0.0003 C   0  0  0  0  0  0  0  0  0  0  0  0
   -1.7407   -1.4665   -0.0011 O   0  0  0  0  0  0  0  0  0  0  0  0
    0.2240   -0.1135   -0.0002 C   0  0  0  0  0  0  0  0  0  0  0  0
    1.0842   -1.2107    0.0004 C   0  0  0  0  0  0  0  0  0  0  0  0
    2.4522   -1.0172    0.0007 C   0  0  0  0  0  0  0  0  0  0  0  0
    2.9683    0.2698    0.0003 C   0  0  0  0  0  0  0  0  0  0  0  0
    2.1162    1.3640   -0.0005 C   0  0  0  0  0  0  0  0  0  0  0  0
    0.7464    1.1791   -0.0007 C   0  0  0  0  0  0  0  0  0  0  0  0
   -3.7698    1.6286    0.0079 H   0  0  0  0  0  0  0  0  0  0  0  0
   -3.6943    0.0641    0.8846 H   0  0  0  0  0  0  0  0  0  0  0  0
   -3.6956    0.0764   -0.8903 H   0  0  0  0  0  0  0  0  0  0  0  0
    0.6553   -2.2016    0.0008 H   0  0  0  0  0  0  0  0  0  0  0  0
    3.1154   -1.8680    0.0013 H   0  0  0  0  0  0  0  0  0  0  0  0
    4.0368    0.4202    0.0005 H   0  0  0  0  0  0  0  0  0  0  0  0
    2.5217    2.3636   -0.0009 H   0  0  0  0  0  0  0  0  0  0  0  0
    0.0743    2.0222   -0.0013 H   0  0  0  0  0  0  0  0  0  0  0  0
  1  2  1  0  0  0  0
  2  3  1  0  0  0  0
  3  4  2  0  0  0  0
  3  5  1  0  0  0  0
  5  6  4  0  0  0  0
  6  7  4  0  0  0  0
  7  8  4  0  0  0  0
  8  9  4  0  0  0  0
  5 10  4  0  0  0  0
  9 10  4  0  0  0  0
  1 11  1  0  0  0  0
  1 12  1  0  0  0  0
  1 13  1  0  0  0  0
  6 14  1  0  0  0  0
  7 15  1  0  0  0  0
  8 16  1  0  0  0  0
  9 17  1  0  0  0  0
 10 18  1  0  0  0  0
M  END
