 xtb: 6.7.1 (edcfbbe)
          04062505533D

 31 32  0     0  0            999 V2000
    2.5801    2.6634    1.0111 C   0  0  0  0  0  0  0  0  0  0  0  0
    2.3426    1.7209   -0.1667 C   0  0  0  0  0  0  0  0  0  0  0  0
    3.1583    0.4102   -0.0328 C   0  0  0  0  0  0  0  0  0  0  0  0
    2.0943   -0.6395    0.0697 C   0  0  0  0  0  0  0  0  0  0  0  0
    2.1773   -2.0082    0.2123 C   0  0  0  0  0  0  0  0  0  0  0  0
    0.9996   -2.7372    0.2793 C   0  0  0  0  0  0  0  0  0  0  0  0
   -0.2373   -2.1157    0.2054 C   0  0  0  0  0  0  0  0  0  0  0  0
   -0.3277   -0.7371    0.0623 C   0  0  0  0  0  0  0  0  0  0  0  0
    0.8575   -0.0071   -0.0051 C   0  0  0  0  0  0  0  0  0  0  0  0
    0.9375    1.3356   -0.1445 O   0  0  0  0  0  0  0  0  0  0  0  0
   -1.4927    0.0184   -0.0278 O   0  0  0  0  0  0  0  0  0  0  0  0
   -2.7529   -0.4716    0.0456 C   0  0  0  0  0  0  0  0  0  0  0  0
   -3.0591   -1.6411    0.1993 O   0  0  0  0  0  0  0  0  0  0  0  0
   -3.6196    0.5406   -0.0777 N   0  0  0  0  0  0  0  0  0  0  0  0
   -5.0533    0.3649   -0.0470 C   0  0  0  0  0  0  0  0  0  0  0  0
    2.6065    2.4255   -1.4953 C   0  0  0  0  0  0  0  0  0  0  0  0
    3.6154    2.9899    1.0214 H   0  0  0  0  0  0  0  0  0  0  0  0
    1.9320    3.5313    0.9249 H   0  0  0  0  0  0  0  0  0  0  0  0
    2.3534    2.1547    1.9453 H   0  0  0  0  0  0  0  0  0  0  0  0
    3.7943    0.2464   -0.9032 H   0  0  0  0  0  0  0  0  0  0  0  0
    3.7907    0.4238    0.8552 H   0  0  0  0  0  0  0  0  0  0  0  0
    3.1355   -2.4987    0.2702 H   0  0  0  0  0  0  0  0  0  0  0  0
    1.0353   -3.8089    0.3909 H   0  0  0  0  0  0  0  0  0  0  0  0
   -1.1408   -2.6997    0.2603 H   0  0  0  0  0  0  0  0  0  0  0  0
   -3.2424    1.4682   -0.2011 H   0  0  0  0  0  0  0  0  0  0  0  0
   -5.2560   -0.6947    0.0951 H   0  0  0  0  0  0  0  0  0  0  0  0
   -5.4937    0.6961   -0.9867 H   0  0  0  0  0  0  0  0  0  0  0  0
   -5.4840    0.9310    0.7780 H   0  0  0  0  0  0  0  0  0  0  0  0
    3.6434    2.7432   -1.5459 H   0  0  0  0  0  0  0  0  0  0  0  0
    1.9609    3.2948   -1.5861 H   0  0  0  0  0  0  0  0  0  0  0  0
    2.3956    1.7510   -2.3219 H   0  0  0  0  0  0  0  0  0  0  0  0
  1  2  1  0  0  0  0
  2  3  1  0  0  0  0
  3  4  1  0  0  0  0
  4  5  4  0  0  0  0
  5  6  4  0  0  0  0
  6  7  4  0  0  0  0
  7  8  4  0  0  0  0
  4  9  4  0  0  0  0
  8  9  4  0  0  0  0
  2 10  1  0  0  0  0
  9 10  1  0  0  0  0
  8 11  1  0  0  0  0
 11 12  1  0  0  0  0
 12 13  2  0  0  0  0
 12 14  4  0  0  0  0
 14 15  1  0  0  0  0
  2 16  1  0  0  0  0
  1 17  1  0  0  0  0
  1 18  1  0  0  0  0
  1 19  1  0  0  0  0
  3 20  1  0  0  0  0
  3 21  1  0  0  0  0
  5 22  1  0  0  0  0
  6 23  1  0  0  0  0
  7 24  1  0  0  0  0
 14 25  1  0  0  0  0
 15 26  1  0  0  0  0
 15 27  1  0  0  0  0
 15 28  1  0  0  0  0
 16 29  1  0  0  0  0
 16 30  1  0  0  0  0
 16 31  1  0  0  0  0
M  END
