 xtb: 6.7.1 (edcfbbe)
          04062518003D

 24 24  0     0  0            999 V2000
   -2.3288   -0.8794   -0.5530 C   0  0  0  0  0  0  0  0  0  0  0  0
   -1.0373   -0.5576    0.2156 C   0  0  0  0  0  0  0  0  0  0  0  0
   -1.1245   -0.9067    1.2585 H   0  0  0  0  0  0  0  0  0  0  0  0
   -0.7429    0.9637    0.2525 C   0  0  0  0  0  0  0  0  0  0  0  0
   -1.5583    1.4949   -0.2507 H   0  0  0  0  0  0  0  0  0  0  0  0
    0.5827    1.2551   -0.4812 C   0  0  0  0  0  0  0  0  0  0  0  0
    0.8263    2.3134   -0.3358 H   0  0  0  0  0  0  0  0  0  0  0  0
    1.7054    0.3868    0.1311 C   0  0  0  0  0  0  0  0  0  0  0  0
    2.5858    0.4353   -0.5204 H   0  0  0  0  0  0  0  0  0  0  0  0
    1.2600   -1.0922    0.1762 C   0  0  0  0  0  0  0  0  0  0  0  0
    1.1958   -1.3929    1.2428 H   0  0  0  0  0  0  0  0  0  0  0  0
   -0.0028   -1.2828   -0.4290 O   0  0  0  0  0  0  0  0  0  0  0  0
    2.1817   -1.8515   -0.5123 O   0  0  0  0  0  0  0  0  0  0  0  0
    2.0085    0.7853    1.4489 O   0  0  0  0  0  0  0  0  0  0  0  0
    0.4875    1.0737   -1.8684 O   0  0  0  0  0  0  0  0  0  0  0  0
   -0.7189    1.4602    1.5679 O   0  0  0  0  0  0  0  0  0  0  0  0
   -3.4440   -0.1842   -0.0685 O   0  0  0  0  0  0  0  0  0  0  0  0
   -2.4878   -1.9645   -0.5318 H   0  0  0  0  0  0  0  0  0  0  0  0
   -2.2068   -0.5668   -1.5922 H   0  0  0  0  0  0  0  0  0  0  0  0
    1.8636   -2.7644   -0.5969 H   0  0  0  0  0  0  0  0  0  0  0  0
    2.6247    1.5316    1.4375 H   0  0  0  0  0  0  0  0  0  0  0  0
    0.3383    0.1324   -2.0499 H   0  0  0  0  0  0  0  0  0  0  0  0
    0.1309    1.2196    1.9796 H   0  0  0  0  0  0  0  0  0  0  0  0
   -3.6314   -0.4528    0.8421 H   0  0  0  0  0  0  0  0  0  0  0  0
  1  2  1  0  0  0  0
  2  3  1  0  0  0  0
  2  4  1  0  0  0  0
  4  5  1  0  0  0  0
  4  6  1  0  0  0  0
  6  7  1  0  0  0  0
  6  8  1  0  0  0  0
  8  9  1  0  0  0  0
  8 10  1  0  0  0  0
 10 11  1  0  0  0  0
  2 12  1  0  0  0  0
 10 12  1  0  0  0  0
 10 13  1  0  0  0  0
  8 14  1  0  0  0  0
  6 15  1  0  0  0  0
  4 16  1  0  0  0  0
  1 17  1  0  0  0  0
  1 18  1  0  0  0  0
  1 19  1  0  0  0  0
 13 20  1  0  0  0  0
 14 21  1  0  0  0  0
 15 22  1  0  0  0  0
 16 23  1  0  0  0  0
 17 24  1  0  0  0  0
M  END
