14
 xtb: 6.7.1 (edcfbbe)
C           -2.13024909342981       -0.55917835281451       -0.70853161861849
C           -1.35743995569972       -0.32156684995736        0.59741891793194
C           -0.00865245358969        0.26412860614485        0.29932609098216
O            0.25440416474617        1.45626307919836        0.29997258569769
O            0.89231726885442       -0.68462159880145       -0.02412876254113
C            2.20879881422377       -0.20588850421962       -0.40213412670171
H           -1.61635328099133       -1.28788108758128       -1.34140633460967
H           -3.12765660383778       -0.94439756316424       -0.48165289726825
H           -2.24230025682782        0.37274754047551       -1.27045999518595
H           -1.23540297162154       -1.26416327817381        1.13788819417364
H           -1.89450028567913        0.38648810522752        1.23244980524727
H            2.66968035636391        0.32725073260472        0.43273436569252
H            2.13651289311888        0.44943886186784       -1.27330776426404
H            2.78239176202723       -1.09966290802731       -0.64474279451507
