 xtb: 6.7.1 (edcfbbe)
          04052518533D

 23 23  0     0  0            999 V2000
   -2.5769    0.8825    0.1240 C   0  0  0  0  0  0  0  0  0  0  0  0
   -1.4300   -0.0481   -0.1483 C   0  0  0  0  0  0  0  0  0  0  0  0
   -1.4010   -0.7509   -1.1389 O   0  0  0  0  0  0  0  0  0  0  0  0
   -0.3522   -0.0744    0.9222 C   0  0  0  0  0  0  0  0  0  0  0  0
    0.5149    1.1913    0.8234 C   0  0  0  0  0  0  0  0  0  0  0  0
    1.2428    1.2716   -0.5204 C   0  0  0  0  0  0  0  0  0  0  0  0
    1.7356   -0.1076   -0.9817 C   0  0  0  0  0  0  0  0  0  0  0  0
    1.8987   -1.0461    0.2083 C   0  0  0  0  0  0  0  0  0  0  0  0
    0.5307   -1.3325    0.8316 C   0  0  0  0  0  0  0  0  0  0  0  0
   -3.1283    1.0752   -0.7923 H   0  0  0  0  0  0  0  0  0  0  0  0
   -3.2434    0.3909    0.8310 H   0  0  0  0  0  0  0  0  0  0  0  0
   -2.2399    1.8128    0.5685 H   0  0  0  0  0  0  0  0  0  0  0  0
   -0.8704   -0.0520    1.8856 H   0  0  0  0  0  0  0  0  0  0  0  0
   -0.0931    2.0850    0.9647 H   0  0  0  0  0  0  0  0  0  0  0  0
    1.2407    1.1583    1.6365 H   0  0  0  0  0  0  0  0  0  0  0  0
    0.5725    1.6838   -1.2777 H   0  0  0  0  0  0  0  0  0  0  0  0
    2.0859    1.9575   -0.4197 H   0  0  0  0  0  0  0  0  0  0  0  0
    1.0089   -0.5489   -1.6667 H   0  0  0  0  0  0  0  0  0  0  0  0
    2.6791   -0.0077   -1.5199 H   0  0  0  0  0  0  0  0  0  0  0  0
    2.3496   -1.9853   -0.1158 H   0  0  0  0  0  0  0  0  0  0  0  0
    2.5681   -0.5949    0.9425 H   0  0  0  0  0  0  0  0  0  0  0  0
    0.0119   -2.0695    0.2136 H   0  0  0  0  0  0  0  0  0  0  0  0
    0.6650   -1.7634    1.8245 H   0  0  0  0  0  0  0  0  0  0  0  0
  1  2  1  0  0  0  0
  2  3  2  0  0  0  0
  2  4  1  0  0  0  0
  4  5  1  0  0  0  0
  5  6  1  0  0  0  0
  6  7  1  0  0  0  0
  7  8  1  0  0  0  0
  4  9  1  0  0  0  0
  8  9  1  0  0  0  0
  1 10  1  0  0  0  0
  1 11  1  0  0  0  0
  1 12  1  0  0  0  0
  4 13  1  0  0  0  0
  5 14  1  0  0  0  0
  5 15  1  0  0  0  0
  6 16  1  0  0  0  0
  6 17  1  0  0  0  0
  7 18  1  0  0  0  0
  7 19  1  0  0  0  0
  8 20  1  0  0  0  0
  8 21  1  0  0  0  0
  9 22  1  0  0  0  0
  9 23  1  0  0  0  0
M  END
