 xtb: 6.7.1 (edcfbbe)
          04032521523D

 25 27  0     0  0            999 V2000
    1.4623    1.4127    1.7454 C   0  0  0  0  0  0  0  0  0  0  0  0
    0.1066    0.7160    1.5989 C   0  0  0  0  0  0  0  0  0  0  0  0
   -0.4812    1.0546    2.4568 H   0  0  0  0  0  0  0  0  0  0  0  0
    0.0821   -0.8399    1.5640 C   0  0  0  0  0  0  0  0  0  0  0  0
   -0.5167   -1.1993    2.4057 H   0  0  0  0  0  0  0  0  0  0  0  0
    1.4077   -1.6162    1.6512 C   0  0  0  0  0  0  0  0  0  0  0  0
    2.5939   -1.0230    1.1355 O   0  0  0  0  0  0  0  0  0  0  0  0
    2.6402   -0.0345   -0.1598 S   0  0  0  0  0  0  0  0  0  0  0  0
    4.0497    0.0546   -0.4595 O   0  0  0  0  0  0  0  0  0  0  0  0
    2.3144    1.3871    0.6186 O   0  0  0  0  0  0  0  0  0  0  0  0
   -0.7615   -1.1344    0.2858 C   0  0  0  0  0  0  0  0  0  0  0  0
    0.0381   -0.6914   -0.9143 C   0  0  0  0  0  0  0  0  0  0  0  0
    0.0707    0.6504   -0.9007 C   0  0  0  0  0  0  0  0  0  0  0  0
   -0.7000    1.1030    0.3214 C   0  0  0  0  0  0  0  0  0  0  0  0
   -1.8031    0.0123    0.3374 C   0  0  0  0  0  0  0  0  0  0  0  0
   -2.8526    0.0633   -1.0920 Cl  0  0  0  0  0  0  0  0  0  0  0  0
   -2.8222    0.0146    1.7637 Cl  0  0  0  0  0  0  0  0  0  0  0  0
   -1.2477    2.7670    0.2840 Cl  0  0  0  0  0  0  0  0  0  0  0  0
    0.9245    1.6709   -1.9472 Cl  0  0  0  0  0  0  0  0  0  0  0  0
    0.8579   -1.7495   -1.9488 Cl  0  0  0  0  0  0  0  0  0  0  0  0
   -1.4046   -2.7621    0.1960 Cl  0  0  0  0  0  0  0  0  0  0  0  0
    1.9889    0.9701    2.5971 H   0  0  0  0  0  0  0  0  0  0  0  0
    1.2936    2.4753    1.9385 H   0  0  0  0  0  0  0  0  0  0  0  0
    1.6428   -1.7860    2.7051 H   0  0  0  0  0  0  0  0  0  0  0  0
    1.2661   -2.5883    1.1659 H   0  0  0  0  0  0  0  0  0  0  0  0
  1  2  1  0  0  0  0
  2  3  1  0  0  0  0
  2  4  1  0  0  0  0
  4  5  1  0  0  0  0
  4  6  1  0  0  0  0
  6  7  1  0  0  0  0
  7  8  1  0  0  0  0
  8  9  2  0  0  0  0
  1 10  1  0  0  0  0
  8 10  1  0  0  0  0
  4 11  1  0  0  0  0
 11 12  1  0  0  0  0
 12 13  2  0  0  0  0
  2 14  1  0  0  0  0
 13 14  1  0  0  0  0
 11 15  1  0  0  0  0
 14 15  1  0  0  0  0
 15 16  1  0  0  0  0
 15 17  1  0  0  0  0
 14 18  1  0  0  0  0
 13 19  1  0  0  0  0
 12 20  1  0  0  0  0
 11 21  1  0  0  0  0
  1 22  1  0  0  0  0
  1 23  1  0  0  0  0
  6 24  1  0  0  0  0
  6 25  1  0  0  0  0
M  END
