 xtb: 6.7.1 (edcfbbe)
          04062518003D

 24 24  0     0  0            999 V2000
   -2.5345   -0.6443   -0.1363 C   0  0  0  0  0  0  0  0  0  0  0  0
   -1.1950   -0.4808    0.6012 C   0  0  0  0  0  0  0  0  0  0  0  0
   -1.2949   -0.8763    1.6251 H   0  0  0  0  0  0  0  0  0  0  0  0
   -0.7182    0.9910    0.7133 C   0  0  0  0  0  0  0  0  0  0  0  0
   -1.5701    1.6633    0.5562 H   0  0  0  0  0  0  0  0  0  0  0  0
    0.3388    1.3012   -0.3581 C   0  0  0  0  0  0  0  0  0  0  0  0
    0.7261    2.3133   -0.1770 H   0  0  0  0  0  0  0  0  0  0  0  0
    1.5448    0.3379   -0.1971 C   0  0  0  0  0  0  0  0  0  0  0  0
    2.0207    0.2304   -1.1777 H   0  0  0  0  0  0  0  0  0  0  0  0
    1.0731   -1.0500    0.2999 C   0  0  0  0  0  0  0  0  0  0  0  0
    1.1313   -1.0734    1.4002 H   0  0  0  0  0  0  0  0  0  0  0  0
   -0.2603   -1.2786   -0.1100 O   0  0  0  0  0  0  0  0  0  0  0  0
    1.8533   -2.0983   -0.1391 O   0  0  0  0  0  0  0  0  0  0  0  0
    2.5277    0.8758    0.6481 O   0  0  0  0  0  0  0  0  0  0  0  0
   -0.1819    1.3009   -1.6580 O   0  0  0  0  0  0  0  0  0  0  0  0
   -0.1096    1.2346    1.9636 O   0  0  0  0  0  0  0  0  0  0  0  0
   -2.3993   -0.4108   -1.5184 O   0  0  0  0  0  0  0  0  0  0  0  0
   -3.2565    0.0838    0.2370 H   0  0  0  0  0  0  0  0  0  0  0  0
   -2.9150   -1.6529    0.0458 H   0  0  0  0  0  0  0  0  0  0  0  0
    1.8081   -2.1644   -1.1056 H   0  0  0  0  0  0  0  0  0  0  0  0
    2.1179    1.0969    1.4996 H   0  0  0  0  0  0  0  0  0  0  0  0
   -0.9681    0.7160   -1.7151 H   0  0  0  0  0  0  0  0  0  0  0  0
   -0.7820    1.3862    2.6424 H   0  0  0  0  0  0  0  0  0  0  0  0
   -1.9481   -1.1711   -1.9137 H   0  0  0  0  0  0  0  0  0  0  0  0
  1  2  1  0  0  0  0
  2  3  1  0  0  0  0
  2  4  1  0  0  0  0
  4  5  1  0  0  0  0
  4  6  1  0  0  0  0
  6  7  1  0  0  0  0
  6  8  1  0  0  0  0
  8  9  1  0  0  0  0
  8 10  1  0  0  0  0
 10 11  1  0  0  0  0
  2 12  1  0  0  0  0
 10 12  1  0  0  0  0
 10 13  1  0  0  0  0
  8 14  1  0  0  0  0
  6 15  1  0  0  0  0
  4 16  1  0  0  0  0
  1 17  1  0  0  0  0
  1 18  1  0  0  0  0
  1 19  1  0  0  0  0
 13 20  1  0  0  0  0
 14 21  1  0  0  0  0
 15 22  1  0  0  0  0
 16 23  1  0  0  0  0
 17 24  1  0  0  0  0
M  END
