22
CONF2
C 1.2362019730 0.4419408136 -1.5610653740
C 2.6134770157 0.5367804307 -1.7006813658
C 3.4400952885 0.3012642820 -0.6067547455
C 2.8831231508 -0.0295410533 0.6300902215
C 1.5036910575 -0.1255913978 0.7712168050
C 0.6801727908 0.1105394954 -0.3261164656
C -0.7933571996 0.0074772782 -0.1719984864
C -1.5569147605 1.1312003730 0.1614974682
C -2.9426438569 1.0314250982 0.3019067785
C -3.5816115809 -0.1848973096 0.1130170032
C -2.8345504209 -1.3054363402 -0.2179013479
C -1.4484305969 -1.2141978575 -0.3605662624
Cl -0.5147503353 -2.6201209626 -0.7787334552
Cl -3.6641911783 -2.8167283202 -0.4506179860
Cl -3.9063592426 2.4194255146 0.7157876223
Cl -0.7583879168 2.6569048696 0.4016495982
Cl 3.8936129295 -0.3301863668 2.0208378583
Cl 5.1686201899 0.4254276606 -0.8087509443
H 0.5942277522 0.6261555938 -2.4156603282
H 3.0516120268 0.7938137869 -2.6584164379
H 1.0754788515 -0.3835640761 1.7334861525
H -4.6567007967 -0.2591212314 0.2225397207
22
CONF1
C 1.2341127748 0.7260953130 -1.4603243723
C 2.6111200785 0.8391716100 -1.5878200823
C 3.4410984697 0.4238428914 -0.5516789624
C 2.8875682505 -0.1068805636 0.6148382497
C 1.5085548572 -0.2224675104 0.7428435561
C 0.6806691628 0.1945335683 -0.2960655778
C -0.7916870321 0.0688169378 -0.1529441172
C -1.5754333280 1.1795237153 0.1803216814
C -2.9601810042 1.0580113539 0.3127931720
C -3.5795045710 -0.1678449986 0.1214809841
C -2.8132694046 -1.2757670759 -0.2072702552
C -1.4285565483 -1.1623945318 -0.3474149607
Cl -0.4780115900 -2.5513617392 -0.7854298886
Cl -3.6188634525 -2.7993378021 -0.4443066082
Cl -3.9471952623 2.4297183783 0.7257612562
Cl -0.8033041464 2.7145249175 0.4488305794
Cl 3.9010840511 -0.6354251718 1.9331559198
Cl 5.1690995836 0.5780179451 -0.7364889865
H 0.5907019823 1.0525885239 -2.2700221127
H 3.0461727371 1.2508296408 -2.4912523053
H 1.0834263526 -0.6365590625 1.6502314090
H -4.6534896500 -0.2594836740 0.2277134427
