 xtb: 6.7.1 (edcfbbe)
          04042522403D

 17 18  0     0  0            999 V2000
   -0.1785   -2.3303   -0.0142 C   0  0  0  0  0  0  0  0  0  0  0  0
    0.5003   -1.0061   -0.0049 C   0  0  0  0  0  0  0  0  0  0  0  0
    1.8929   -0.9595   -0.0051 C   0  0  0  0  0  0  0  0  0  0  0  0
    2.5894    0.2337    0.0024 C   0  0  0  0  0  0  0  0  0  0  0  0
    1.9051    1.4435    0.0093 C   0  0  0  0  0  0  0  0  0  0  0  0
    0.5298    1.4367    0.0081 C   0  0  0  0  0  0  0  0  0  0  0  0
   -0.1765    0.2277    0.0017 C   0  0  0  0  0  0  0  0  0  0  0  0
   -1.5926    0.3218    0.0010 N   0  0  0  0  0  0  0  0  0  0  0  0
   -2.1018    1.4381   -0.0375 O   0  0  0  0  0  0  0  0  0  0  0  0
   -2.2729   -0.6931    0.0385 O   0  0  0  0  0  0  0  0  0  0  0  0
   -0.8039   -2.4471    0.8698 H   0  0  0  0  0  0  0  0  0  0  0  0
   -0.8442   -2.4177   -0.8717 H   0  0  0  0  0  0  0  0  0  0  0  0
    0.5550   -3.1303   -0.0443 H   0  0  0  0  0  0  0  0  0  0  0  0
    2.4373   -1.8908   -0.0112 H   0  0  0  0  0  0  0  0  0  0  0  0
    3.6678    0.2246    0.0029 H   0  0  0  0  0  0  0  0  0  0  0  0
    2.4412    2.3781    0.0157 H   0  0  0  0  0  0  0  0  0  0  0  0
   -0.0342    2.3564    0.0139 H   0  0  0  0  0  0  0  0  0  0  0  0
  1  2  1  0  0  0  0
  2  3  4  0  0  0  0
  3  4  4  0  0  0  0
  4  5  4  0  0  0  0
  5  6  4  0  0  0  0
  2  7  4  0  0  0  0
  6  7  4  0  0  0  0
  7  8  1  0  0  0  0
  8  9  4  0  0  0  0
  8 10  4  0  0  0  0
  9 10  1  0  0  0  0
  1 11  1  0  0  0  0
  1 12  1  0  0  0  0
  1 13  1  0  0  0  0
  3 14  1  0  0  0  0
  4 15  1  0  0  0  0
  5 16  1  0  0  0  0
  6 17  1  0  0  0  0
M  END
