 xtb: 6.7.1 (edcfbbe)
          04062518003D

 24 24  0     0  0            999 V2000
   -2.4321   -0.7195    0.0236 C   0  0  0  0  0  0  0  0  0  0  0  0
   -1.0103   -0.2554    0.3592 C   0  0  0  0  0  0  0  0  0  0  0  0
   -0.9795    0.0944    1.4019 H   0  0  0  0  0  0  0  0  0  0  0  0
   -0.5121    0.8728   -0.5554 C   0  0  0  0  0  0  0  0  0  0  0  0
   -0.3765    0.4805   -1.5719 H   0  0  0  0  0  0  0  0  0  0  0  0
    0.8537    1.3390   -0.0271 C   0  0  0  0  0  0  0  0  0  0  0  0
    0.6622    1.9698    0.8548 H   0  0  0  0  0  0  0  0  0  0  0  0
    1.7099    0.1532    0.4471 C   0  0  0  0  0  0  0  0  0  0  0  0
    2.7165    0.3010    0.0351 H   0  0  0  0  0  0  0  0  0  0  0  0
    1.1730   -1.1798   -0.1014 C   0  0  0  0  0  0  0  0  0  0  0  0
    1.7171   -2.0122    0.3741 H   0  0  0  0  0  0  0  0  0  0  0  0
   -0.1709   -1.4061    0.2382 O   0  0  0  0  0  0  0  0  0  0  0  0
    1.3712   -1.1936   -1.4803 O   0  0  0  0  0  0  0  0  0  0  0  0
    1.7112    0.1549    1.8514 O   0  0  0  0  0  0  0  0  0  0  0  0
    1.5765    2.0510   -0.9963 O   0  0  0  0  0  0  0  0  0  0  0  0
   -1.3560    1.9991   -0.5531 O   0  0  0  0  0  0  0  0  0  0  0  0
   -2.8688   -1.7370    0.8878 O   0  0  0  0  0  0  0  0  0  0  0  0
   -2.4604   -1.0673   -1.0183 H   0  0  0  0  0  0  0  0  0  0  0  0
   -3.1301    0.1079    0.1585 H   0  0  0  0  0  0  0  0  0  0  0  0
    1.1488   -2.0668   -1.8403 H   0  0  0  0  0  0  0  0  0  0  0  0
    2.3900   -0.4479    2.1884 H   0  0  0  0  0  0  0  0  0  0  0  0
    1.0455    2.8104   -1.2796 H   0  0  0  0  0  0  0  0  0  0  0  0
   -2.1251    1.8450   -1.1180 H   0  0  0  0  0  0  0  0  0  0  0  0
   -2.1915   -2.4289    0.9066 H   0  0  0  0  0  0  0  0  0  0  0  0
  1  2  1  0  0  0  0
  2  3  1  0  0  0  0
  2  4  1  0  0  0  0
  4  5  1  0  0  0  0
  4  6  1  0  0  0  0
  6  7  1  0  0  0  0
  6  8  1  0  0  0  0
  8  9  1  0  0  0  0
  8 10  1  0  0  0  0
 10 11  1  0  0  0  0
  2 12  1  0  0  0  0
 10 12  1  0  0  0  0
 10 13  1  0  0  0  0
  8 14  1  0  0  0  0
  6 15  1  0  0  0  0
  4 16  1  0  0  0  0
  1 17  1  0  0  0  0
  1 18  1  0  0  0  0
  1 19  1  0  0  0  0
 13 20  1  0  0  0  0
 14 21  1  0  0  0  0
 15 22  1  0  0  0  0
 16 23  1  0  0  0  0
 17 24  1  0  0  0  0
M  END
