 xtb: 6.7.1 (edcfbbe)
          04042521563D

 17 16  0     0  0            999 V2000
   -2.0783    0.3668    0.3136 C   0  0  0  0  0  0  0  0  0  0  0  0
   -0.8100    0.3479   -0.5329 C   0  0  0  0  0  0  0  0  0  0  0  0
    0.4283   -0.1067    0.2664 C   0  0  0  0  0  0  0  0  0  0  0  0
    0.9020   -1.4861   -0.1891 C   0  0  0  0  0  0  0  0  0  0  0  0
    1.5660    0.9060    0.1457 C   0  0  0  0  0  0  0  0  0  0  0  0
   -2.2808   -0.6196    0.7247 H   0  0  0  0  0  0  0  0  0  0  0  0
   -2.9333    0.6709   -0.2860 H   0  0  0  0  0  0  0  0  0  0  0  0
   -1.9731    1.0680    1.1389 H   0  0  0  0  0  0  0  0  0  0  0  0
   -0.9601   -0.3181   -1.3847 H   0  0  0  0  0  0  0  0  0  0  0  0
   -0.6416    1.3495   -0.9327 H   0  0  0  0  0  0  0  0  0  0  0  0
    0.1513   -0.1760    1.3241 H   0  0  0  0  0  0  0  0  0  0  0  0
    0.1005   -2.2158   -0.1003 H   0  0  0  0  0  0  0  0  0  0  0  0
    1.7403   -1.8225    0.4172 H   0  0  0  0  0  0  0  0  0  0  0  0
    1.2243   -1.4509   -1.2280 H   0  0  0  0  0  0  0  0  0  0  0  0
    1.2486    1.8810    0.5086 H   0  0  0  0  0  0  0  0  0  0  0  0
    1.8764    1.0069   -0.8922 H   0  0  0  0  0  0  0  0  0  0  0  0
    2.4252    0.5865    0.7314 H   0  0  0  0  0  0  0  0  0  0  0  0
  1  2  1  0  0  0  0
  2  3  1  0  0  0  0
  3  4  1  0  0  0  0
  3  5  1  0  0  0  0
  1  6  1  0  0  0  0
  1  7  1  0  0  0  0
  1  8  1  0  0  0  0
  2  9  1  0  0  0  0
  2 10  1  0  0  0  0
  3 11  1  0  0  0  0
  4 12  1  0  0  0  0
  4 13  1  0  0  0  0
  4 14  1  0  0  0  0
  5 15  1  0  0  0  0
  5 16  1  0  0  0  0
  5 17  1  0  0  0  0
M  END
