 xtb: 6.7.1 (edcfbbe)
          04032521413D

 12 12  0     0  0            999 V2000
   -1.3197   -1.4874   -0.0001 C   0  0  0  0  0  0  0  0  0  0  0  0
    0.0354   -1.7641   -0.0002 C   0  0  0  0  0  0  0  0  0  0  0  0
    0.9600   -0.7304   -0.0002 C   0  0  0  0  0  0  0  0  0  0  0  0
    0.5232    0.5907   -0.0000 C   0  0  0  0  0  0  0  0  0  0  0  0
   -0.8324    0.8783    0.0002 C   0  0  0  0  0  0  0  0  0  0  0  0
   -1.7426   -0.1669    0.0001 C   0  0  0  0  0  0  0  0  0  0  0  0
   -3.4337    0.1948    0.0000 Cl  0  0  0  0  0  0  0  0  0  0  0  0
    1.6660    1.8879   -0.0001 Cl  0  0  0  0  0  0  0  0  0  0  0  0
    2.6528   -1.0847    0.0001 Cl  0  0  0  0  0  0  0  0  0  0  0  0
   -2.0391   -2.2890    0.0001 H   0  0  0  0  0  0  0  0  0  0  0  0
    0.3832   -2.7836    0.0002 H   0  0  0  0  0  0  0  0  0  0  0  0
   -1.1658    1.9027    0.0004 H   0  0  0  0  0  0  0  0  0  0  0  0
  1  2  4  0  0  0  0
  2  3  4  0  0  0  0
  3  4  4  0  0  0  0
  4  5  4  0  0  0  0
  1  6  4  0  0  0  0
  5  6  4  0  0  0  0
  6  7  1  0  0  0  0
  4  8  1  0  0  0  0
  3  9  1  0  0  0  0
  1 10  1  0  0  0  0
  2 11  1  0  0  0  0
  5 12  1  0  0  0  0
M  END
