18
 xtb: 6.7.1 (edcfbbe)
C           -3.09183683211134        0.01657043281035       -0.70218621396794
O           -2.32996597851298       -0.19326482957140        0.50190925822826
C           -0.95350874012691       -0.09514724194808        0.28760884224777
C           -0.20986455128705       -1.24120097127679        0.02427439679913
C            1.16727104137201       -1.15403502402436       -0.14507171474919
C            1.82201295208283        0.08384335388552       -0.05874155128778
C            1.05604299128145        1.23141564422744        0.19789287618452
C           -0.32063615337233        1.14174681869155        0.36824065556607
N            3.21052651484976        0.16257005414294       -0.15900435970643
H           -4.14550568031333       -0.07484815649967       -0.42942831994961
H           -2.83979649337975       -0.74019001498976       -1.45589611335458
H           -2.90391543173263        1.01685109888508       -1.11211512671028
H           -0.71168522068936       -2.20174491338526       -0.04483461987796
H            1.74616335536330       -2.05174691040388       -0.34412095366714
H            1.54853333954976        2.19759033350365        0.26746538220851
H           -0.90787830230636        2.03324333679714        0.56747181680782
H            3.55008486007936        1.06630148152875       -0.45839510205264
H            3.62582555961607       -0.58669178751297       -0.69533822364977
