6
 xtb: 6.7.1 (edcfbbe)
N            0.73787780236885        0.00001792372416       -0.10890660861407
N           -0.73787261649134        0.00001774572935        0.10889339357164
H            1.06913645684308        0.79503183805294        0.43537029402018
H            1.06913817672970       -0.79498686915324        0.43537955801882
H           -1.06912488726958       -0.79503605040857       -0.43532803842716
H           -1.06914056908374        0.79498351197840       -0.43544771443419
