12
 xtb: 6.7.1 (edcfbbe)
C           -2.18437504846906        0.28022863390419        0.12969405482691
C           -0.92444833269616       -0.39417589683561       -0.38803512936662
S            0.56736657607810        0.37979004499497        0.36439193511767
C            1.85229863750422       -0.62443457378444       -0.46132088415360
H           -3.06402616639000       -0.18775634528016       -0.32372176001384
H           -2.27317578180736        0.18259754116631        1.21612950931082
H           -2.20084073279833        1.34489660661617       -0.12328544954490
H           -0.84983450134042       -0.29661530048992       -1.47643553618184
H           -0.92221624228905       -1.46042792036533       -0.13738971250555
H            2.82566406641207       -0.27494511037329       -0.10789512605699
H            1.80323325964154       -0.49917858569223       -1.54688026330065
H            1.74114063058692       -1.68221193712836       -0.20577151665012
