12
 xtb: 6.7.1 (edcfbbe)
C           -2.01462034940507       -0.18497004578117        0.47620093031874
C           -0.90380348323942        0.04797842205205       -0.54747355073541
C            0.45757217315627        0.10483554854822        0.10758376161862
O            0.83483496755480       -0.77456382187556        0.90215273983903
N            1.23969442561298        1.14817663672647       -0.22239062397335
H           -2.98172059629631       -0.25774764687813       -0.02799647051677
H           -1.84908563259049       -1.11199054119359        1.03109104670748
H           -2.06393656744948        0.64098314504400        1.19262762625797
H           -1.09124940795332        0.95918378699234       -1.12278232888174
H           -0.87279400435082       -0.78718618552875       -1.25873852238189
H            0.91767981938450        1.86010811403973       -0.85851091977614
H            2.16620939017783        1.22376070827001        0.17183138772096
