 xtb: 6.7.1 (edcfbbe)
          04062518003D

 24 24  0     0  0            999 V2000
   -1.8156   -1.0564   -0.6658 C   0  0  0  0  0  0  0  0  0  0  0  0
   -1.0383   -0.4894    0.5328 C   0  0  0  0  0  0  0  0  0  0  0  0
   -1.6944   -0.5632    1.4082 H   0  0  0  0  0  0  0  0  0  0  0  0
   -0.7023    1.0022    0.3454 C   0  0  0  0  0  0  0  0  0  0  0  0
   -1.5385    1.4577   -0.1960 H   0  0  0  0  0  0  0  0  0  0  0  0
    0.5987    1.2363   -0.4569 C   0  0  0  0  0  0  0  0  0  0  0  0
    0.8782    2.2864   -0.3006 H   0  0  0  0  0  0  0  0  0  0  0  0
    1.7220    0.3479    0.0998 C   0  0  0  0  0  0  0  0  0  0  0  0
    2.5849    0.4164   -0.5779 H   0  0  0  0  0  0  0  0  0  0  0  0
    1.2572   -1.1224    0.1278 C   0  0  0  0  0  0  0  0  0  0  0  0
    1.9958   -1.7244    0.6794 H   0  0  0  0  0  0  0  0  0  0  0  0
    0.0829   -1.3018    0.8720 O   0  0  0  0  0  0  0  0  0  0  0  0
    1.1465   -1.5610   -1.1948 O   0  0  0  0  0  0  0  0  0  0  0  0
    2.0415    0.8037    1.3888 O   0  0  0  0  0  0  0  0  0  0  0  0
    0.4410    1.0705   -1.8419 O   0  0  0  0  0  0  0  0  0  0  0  0
   -0.6389    1.6720    1.5819 O   0  0  0  0  0  0  0  0  0  0  0  0
   -3.0948   -0.4650   -0.6611 O   0  0  0  0  0  0  0  0  0  0  0  0
   -1.8904   -2.1443   -0.5342 H   0  0  0  0  0  0  0  0  0  0  0  0
   -1.2921   -0.8353   -1.6014 H   0  0  0  0  0  0  0  0  0  0  0  0
    1.0160   -2.5209   -1.2252 H   0  0  0  0  0  0  0  0  0  0  0  0
    2.8244    0.3456    1.7277 H   0  0  0  0  0  0  0  0  0  0  0  0
    0.6034    0.1394   -2.0687 H   0  0  0  0  0  0  0  0  0  0  0  0
    0.1906    1.4242    2.0245 H   0  0  0  0  0  0  0  0  0  0  0  0
   -3.5907   -0.7734   -1.4326 H   0  0  0  0  0  0  0  0  0  0  0  0
  1  2  1  0  0  0  0
  2  3  1  0  0  0  0
  2  4  1  0  0  0  0
  4  5  1  0  0  0  0
  4  6  1  0  0  0  0
  6  7  1  0  0  0  0
  6  8  1  0  0  0  0
  8  9  1  0  0  0  0
  8 10  1  0  0  0  0
 10 11  1  0  0  0  0
  2 12  1  0  0  0  0
 10 12  1  0  0  0  0
 10 13  1  0  0  0  0
  8 14  1  0  0  0  0
  6 15  1  0  0  0  0
  4 16  1  0  0  0  0
  1 17  1  0  0  0  0
  1 18  1  0  0  0  0
  1 19  1  0  0  0  0
 13 20  1  0  0  0  0
 14 21  1  0  0  0  0
 15 22  1  0  0  0  0
 16 23  1  0  0  0  0
 17 24  1  0  0  0  0
M  END
