 xtb: 6.7.1 (edcfbbe)
          04042519493D

 14 13  0     0  0            999 V2000
   -2.5647    0.6174   -0.1388 C   0  0  0  0  0  0  0  0  0  0  0  0
   -1.3866   -0.3256    0.0116 C   0  0  0  0  0  0  0  0  0  0  0  0
   -0.1809    0.4253   -0.2066 O   0  0  0  0  0  0  0  0  0  0  0  0
    0.9771   -0.1618    0.0627 C   0  0  0  0  0  0  0  0  0  0  0  0
    1.0612   -1.2996    0.4811 O   0  0  0  0  0  0  0  0  0  0  0  0
    2.1398    0.7434   -0.2116 C   0  0  0  0  0  0  0  0  0  0  0  0
   -2.5653    1.0538   -1.1331 H   0  0  0  0  0  0  0  0  0  0  0  0
   -3.4872    0.0668    0.0126 H   0  0  0  0  0  0  0  0  0  0  0  0
   -2.4987    1.4159    0.5942 H   0  0  0  0  0  0  0  0  0  0  0  0
   -1.4226   -1.1384   -0.7212 H   0  0  0  0  0  0  0  0  0  0  0  0
   -1.3423   -0.7700    1.0114 H   0  0  0  0  0  0  0  0  0  0  0  0
    2.7570    0.8101    0.6803 H   0  0  0  0  0  0  0  0  0  0  0  0
    1.7827    1.7238   -0.5068 H   0  0  0  0  0  0  0  0  0  0  0  0
    2.7447    0.3078   -1.0030 H   0  0  0  0  0  0  0  0  0  0  0  0
  1  2  1  0  0  0  0
  2  3  1  0  0  0  0
  3  4  1  0  0  0  0
  4  5  2  0  0  0  0
  4  6  1  0  0  0  0
  1  7  1  0  0  0  0
  1  8  1  0  0  0  0
  1  9  1  0  0  0  0
  2 10  1  0  0  0  0
  2 11  1  0  0  0  0
  6 12  1  0  0  0  0
  6 13  1  0  0  0  0
  6 14  1  0  0  0  0
M  END
