 xtb: 6.7.1 (edcfbbe)
          04032520583D

 14 13  0     0  0            999 V2000
   -0.3776    1.3982   -0.1084 C   0  0  0  0  0  0  0  0  0  0  0  0
   -0.0000   -0.0000    0.3758 C   0  0  0  0  0  0  0  0  0  0  0  0
   -1.0221   -1.0261   -0.1083 C   0  0  0  0  0  0  0  0  0  0  0  0
    1.3996   -0.3721   -0.1084 C   0  0  0  0  0  0  0  0  0  0  0  0
    0.3374    2.1344    0.2516 H   0  0  0  0  0  0  0  0  0  0  0  0
   -0.3864    1.4309   -1.1958 H   0  0  0  0  0  0  0  0  0  0  0  0
   -1.3659    1.6744    0.2516 H   0  0  0  0  0  0  0  0  0  0  0  0
    0.0000    0.0000    1.4719 H   0  0  0  0  0  0  0  0  0  0  0  0
   -1.0460   -1.0501   -1.1958 H   0  0  0  0  0  0  0  0  0  0  0  0
   -2.0171   -0.7750    0.2517 H   0  0  0  0  0  0  0  0  0  0  0  0
   -0.7672   -2.0201    0.2517 H   0  0  0  0  0  0  0  0  0  0  0  0
    1.6797   -1.3594    0.2516 H   0  0  0  0  0  0  0  0  0  0  0  0
    2.1331    0.3457    0.2516 H   0  0  0  0  0  0  0  0  0  0  0  0
    1.4324   -0.3808   -1.1959 H   0  0  0  0  0  0  0  0  0  0  0  0
  1  2  1  0  0  0  0
  2  3  1  0  0  0  0
  2  4  1  0  0  0  0
  1  5  1  0  0  0  0
  1  6  1  0  0  0  0
  1  7  1  0  0  0  0
  2  8  1  0  0  0  0
  3  9  1  0  0  0  0
  3 10  1  0  0  0  0
  3 11  1  0  0  0  0
  4 12  1  0  0  0  0
  4 13  1  0  0  0  0
  4 14  1  0  0  0  0
M  END
