 xtb: 6.7.1 (edcfbbe)
          04052509183D

 22 23  0     0  0            999 V2000
   -4.0842    0.0037    0.0033 C   0  0  0  0  0  0  0  0  0  0  0  0
   -3.3985    0.8557    0.8526 C   0  0  0  0  0  0  0  0  0  0  0  0
   -2.0145    0.8472    0.8443 C   0  0  0  0  0  0  0  0  0  0  0  0
   -1.2996    0.0015    0.0015 C   0  0  0  0  0  0  0  0  0  0  0  0
   -2.0169   -0.8430   -0.8404 C   0  0  0  0  0  0  0  0  0  0  0  0
   -3.4010   -0.8493   -0.8469 C   0  0  0  0  0  0  0  0  0  0  0  0
   -1.1364   -1.9014   -1.8954 Cl  0  0  0  0  0  0  0  0  0  0  0  0
    0.1806    0.0003    0.0004 C   0  0  0  0  0  0  0  0  0  0  0  0
    0.8989    0.8430   -0.8434 C   0  0  0  0  0  0  0  0  0  0  0  0
    2.2837    0.8536   -0.8566 C   0  0  0  0  0  0  0  0  0  0  0  0
    2.9603   -0.0025   -0.0021 C   0  0  0  0  0  0  0  0  0  0  0  0
    2.2835   -0.8572    0.8537 C   0  0  0  0  0  0  0  0  0  0  0  0
    0.8987   -0.8438    0.8430 C   0  0  0  0  0  0  0  0  0  0  0  0
    0.0315   -1.8984    1.8990 Cl  0  0  0  0  0  0  0  0  0  0  0  0
    4.6859   -0.0043   -0.0037 Cl  0  0  0  0  0  0  0  0  0  0  0  0
    0.0319    1.8993   -1.8979 Cl  0  0  0  0  0  0  0  0  0  0  0  0
   -1.1309    1.9043    1.8981 Cl  0  0  0  0  0  0  0  0  0  0  0  0
   -5.1617    0.0046    0.0040 H   0  0  0  0  0  0  0  0  0  0  0  0
   -3.9252    1.5212    1.5158 H   0  0  0  0  0  0  0  0  0  0  0  0
   -3.9296   -1.5139   -1.5094 H   0  0  0  0  0  0  0  0  0  0  0  0
    2.8189    1.5141   -1.5180 H   0  0  0  0  0  0  0  0  0  0  0  0
    2.8186   -1.5187    1.5141 H   0  0  0  0  0  0  0  0  0  0  0  0
  1  2  4  0  0  0  0
  2  3  4  0  0  0  0
  3  4  4  0  0  0  0
  4  5  4  0  0  0  0
  1  6  4  0  0  0  0
  5  6  4  0  0  0  0
  5  7  1  0  0  0  0
  4  8  1  0  0  0  0
  8  9  4  0  0  0  0
  9 10  4  0  0  0  0
 10 11  4  0  0  0  0
 11 12  4  0  0  0  0
  8 13  4  0  0  0  0
 12 13  4  0  0  0  0
 13 14  1  0  0  0  0
 11 15  1  0  0  0  0
  9 16  1  0  0  0  0
  3 17  1  0  0  0  0
  1 18  1  0  0  0  0
  2 19  1  0  0  0  0
  6 20  1  0  0  0  0
 10 21  1  0  0  0  0
 12 22  1  0  0  0  0
M  END
