 xtb: 6.7.1 (edcfbbe)
          04062518003D

 24 24  0     0  0            999 V2000
   -2.3228   -0.6921   -0.7659 C   0  0  0  0  0  0  0  0  0  0  0  0
   -1.1127   -0.5493    0.1684 C   0  0  0  0  0  0  0  0  0  0  0  0
   -1.3499   -0.9787    1.1565 H   0  0  0  0  0  0  0  0  0  0  0  0
   -0.7233    0.9225    0.4114 C   0  0  0  0  0  0  0  0  0  0  0  0
   -1.5563    1.5645    0.0882 H   0  0  0  0  0  0  0  0  0  0  0  0
    0.5250    1.2722   -0.4270 C   0  0  0  0  0  0  0  0  0  0  0  0
    0.8191    2.3086   -0.2287 H   0  0  0  0  0  0  0  0  0  0  0  0
    1.7059    0.3662   -0.0281 C   0  0  0  0  0  0  0  0  0  0  0  0
    2.3835    0.2935   -0.8916 H   0  0  0  0  0  0  0  0  0  0  0  0
    1.1785   -1.0548    0.2723 C   0  0  0  0  0  0  0  0  0  0  0  0
    1.0005   -1.1409    1.3630 H   0  0  0  0  0  0  0  0  0  0  0  0
   -0.0438   -1.2836   -0.4053 O   0  0  0  0  0  0  0  0  0  0  0  0
    2.1067   -1.9748   -0.1727 O   0  0  0  0  0  0  0  0  0  0  0  0
    2.3563    0.9395    1.0732 O   0  0  0  0  0  0  0  0  0  0  0  0
    0.2560    1.2012   -1.8027 O   0  0  0  0  0  0  0  0  0  0  0  0
   -0.4947    1.0684    1.7927 O   0  0  0  0  0  0  0  0  0  0  0  0
   -3.4813   -0.1079   -0.2354 O   0  0  0  0  0  0  0  0  0  0  0  0
   -2.4675   -1.7570   -0.9828 H   0  0  0  0  0  0  0  0  0  0  0  0
   -2.1253   -0.1659   -1.7018 H   0  0  0  0  0  0  0  0  0  0  0  0
    1.7277   -2.8673   -0.1466 H   0  0  0  0  0  0  0  0  0  0  0  0
    3.1578    0.4375    1.2778 H   0  0  0  0  0  0  0  0  0  0  0  0
    0.1594    0.2687   -2.0511 H   0  0  0  0  0  0  0  0  0  0  0  0
   -0.1646    1.9576    1.9825 H   0  0  0  0  0  0  0  0  0  0  0  0
   -3.7534   -0.5813    0.5639 H   0  0  0  0  0  0  0  0  0  0  0  0
  1  2  1  0  0  0  0
  2  3  1  0  0  0  0
  2  4  1  0  0  0  0
  4  5  1  0  0  0  0
  4  6  1  0  0  0  0
  6  7  1  0  0  0  0
  6  8  1  0  0  0  0
  8  9  1  0  0  0  0
  8 10  1  0  0  0  0
 10 11  1  0  0  0  0
  2 12  1  0  0  0  0
 10 12  1  0  0  0  0
 10 13  1  0  0  0  0
  8 14  1  0  0  0  0
  6 15  1  0  0  0  0
  4 16  1  0  0  0  0
  1 17  1  0  0  0  0
  1 18  1  0  0  0  0
  1 19  1  0  0  0  0
 13 20  1  0  0  0  0
 14 21  1  0  0  0  0
 15 22  1  0  0  0  0
 16 23  1  0  0  0  0
 17 24  1  0  0  0  0
M  END
