16
CONF1
C -2.2789275844 0.3011028885 0.1032724269
C -1.3668122572 1.3320541499 -0.0476647434
C -0.0181255519 1.0508782054 -0.1736199966
C 0.4328254289 -0.2625301226 -0.1435311677
C -0.4863014100 -1.2917819987 0.0116524460
C -1.8362155193 -1.0109323793 0.1306040774
C 1.9050552173 -0.5614213085 -0.2939749174
O 2.7479308177 0.4021174220 0.3027406436
H -3.3317750554 0.5191191279 0.1998255761
H -1.7061802233 2.3567140719 -0.0714179857
H 0.7006101897 1.8482325907 -0.2946261923
H -0.1427676544 -2.3158091896 0.0366357360
H -2.5437112621 -1.8177222434 0.2498458051
H 2.1265249205 -1.5625303312 0.1001790662
H 2.1691232563 -0.5513780371 -1.3573460460
H 2.5852430458 0.4148558372 1.2558684669
16
CONF2
C -2.3023431085 0.0947836996 0.0426683812
C -1.6599338669 1.2994012730 -0.1965992027
C -0.2796113832 1.3517887447 -0.2455952784
C 0.4748577761 0.1990881563 -0.0560956758
C -0.1728448791 -1.0032456046 0.1819683850
C -1.5559302418 -1.0545669862 0.2315979452
C 1.9792611523 0.2842928621 -0.1168928880
O 2.5712419559 -0.9704892289 0.1407831838
H -3.3804759913 0.0545868934 0.0811620973
H -2.2372905699 2.1996896596 -0.3450980144
H 0.2206393041 2.2912781790 -0.4320136612
H 0.4168902201 -1.8946829409 0.3286424659
H -2.0493246568 -1.9967565989 0.4179282842
H 2.2685629432 0.6444502346 -1.1161111982
H 2.3181295051 1.0263053794 0.6216147122
H 3.5321660947 -0.8801759224 0.1032196673
