16
CONF1
C -2.2913174844 0.3013319490 0.0993733374
C -1.3747242108 1.3409150504 -0.0498105657
C -0.0153886163 1.0659596590 -0.1716687834
C 0.4457023403 -0.2530611025 -0.1411039607
C -0.4776501794 -1.2889196543 0.0178161428
C -1.8388751611 -1.0154820870 0.1310572413
C 1.9118179108 -0.5700405300 -0.3039211085
O 2.7784877591 0.3948976770 0.3124192911
H -3.3508592278 0.5171323137 0.1944873792
H -1.7204532635 2.3699203732 -0.0734692331
H 0.6928160190 1.8801533565 -0.2906852915
H -0.1265467102 -2.3168943570 0.0546877550
H -2.5447002338 -1.8311412521 0.2548180771
H 2.1147893379 -1.5771497305 0.0841816495
H 2.1795285841 -0.5651805678 -1.3668638992
H 2.5738703834 0.3985267674 1.2571255088
16
CONF2
C -2.3160362460 0.0953265419 0.0407826059
C -1.6611156706 1.3038136249 -0.1988772029
C -0.2728337930 1.3480303390 -0.2439493537
C 0.4856704018 0.1876706009 -0.0517216072
C -0.1733886876 -1.0177805207 0.1878670602
C -1.5676994294 -1.0611018772 0.2336647500
C 1.9846766524 0.2930977364 -0.1177211622
O 2.5895332332 -0.9787511051 0.1395328861
H -3.4002372289 0.0589849302 0.0767906453
H -2.2343203614 2.2133620395 -0.3501190251
H 0.2331283249 2.2921338843 -0.4306114106
H 0.3961044814 -1.9272519213 0.3403516874
H -2.0673832615 -2.0066902250 0.4214974148
H 2.2762016935 0.6604228918 -1.1129603924
H 2.3268137300 1.0359804023 0.6176490961
H 3.5448806342 -0.8515001036 0.0890021582
