 xtb: 6.7.1 (edcfbbe)
          04032522203D

 12 11  0     0  0            999 V2000
   -1.5889   -0.1707    0.4894 C   0  0  0  0  0  0  0  0  0  0  0  0
   -0.6770    0.5011   -0.5309 C   0  0  0  0  0  0  0  0  0  0  0  0
    0.6769   -0.2043   -0.6296 C   0  0  0  0  0  0  0  0  0  0  0  0
    1.4250   -0.1463    0.5672 O   0  0  0  0  0  0  0  0  0  0  0  0
   -2.5087    0.3947    0.6122 H   0  0  0  0  0  0  0  0  0  0  0  0
   -1.8399   -1.1783    0.1665 H   0  0  0  0  0  0  0  0  0  0  0  0
   -1.0870   -0.2377    1.4519 H   0  0  0  0  0  0  0  0  0  0  0  0
   -0.5168    1.5445   -0.2495 H   0  0  0  0  0  0  0  0  0  0  0  0
   -1.1438    0.4860   -1.5165 H   0  0  0  0  0  0  0  0  0  0  0  0
    0.5307   -1.2695   -0.8247 H   0  0  0  0  0  0  0  0  0  0  0  0
    1.2603    0.2221   -1.4577 H   0  0  0  0  0  0  0  0  0  0  0  0
    1.5994    0.7806    0.7819 H   0  0  0  0  0  0  0  0  0  0  0  0
  1  2  1  0  0  0  0
  2  3  1  0  0  0  0
  3  4  1  0  0  0  0
  1  5  1  0  0  0  0
  1  6  1  0  0  0  0
  1  7  1  0  0  0  0
  2  8  1  0  0  0  0
  2  9  1  0  0  0  0
  3 10  1  0  0  0  0
  3 11  1  0  0  0  0
  4 12  1  0  0  0  0
M  END
