11
 xtb: 6.7.1 (edcfbbe)
C           -2.82840918716668       -0.40545695157318        0.00018862258033
O           -1.38474039871519       -0.63703936222151       -0.00196282724324
C           -0.58469966034244        0.41274847092209       -0.00094429081796
O           -0.86904523286664        1.58567356306543        0.00175226506171
C            0.88531154656643       -0.07968587117195       -0.00076727700119
F            1.72533230443001        0.96162662254347       -0.02250825727549
F            1.14705305608681       -0.81044443534913        1.10162259326578
F            1.13820667914055       -0.84895111204164       -1.07820023079703
H           -3.04569898588114        0.66151765518262       -0.02204828063375
H           -3.21671789754860       -0.86614295060432        0.90873651791546
H           -3.22300966498186       -0.90493025796999       -0.88466521977747
