 xtb: 6.7.1 (edcfbbe)
          04032522173D

 11 10  0     0  0            999 V2000
    1.7018   -0.9524    0.3473 C   0  0  0  0  0  0  0  0  0  0  0  0
    0.9782    0.0989   -0.4867 C   0  0  0  0  0  0  0  0  0  0  0  0
   -0.5026    0.2513   -0.2296 C   0  0  0  0  0  0  0  0  0  0  0  0
   -1.1434    1.1670   -0.7023 O   0  0  0  0  0  0  0  0  0  0  0  0
   -1.1103   -0.6537    0.5269 O   0  0  0  0  0  0  0  0  0  0  0  0
    1.5831   -0.7596    1.4111 H   0  0  0  0  0  0  0  0  0  0  0  0
    1.3591   -1.9572    0.1106 H   0  0  0  0  0  0  0  0  0  0  0  0
    2.7638   -0.9108    0.1214 H   0  0  0  0  0  0  0  0  0  0  0  0
    1.4195    1.0858   -0.3347 H   0  0  0  0  0  0  0  0  0  0  0  0
    1.0805   -0.1226   -1.5522 H   0  0  0  0  0  0  0  0  0  0  0  0
   -0.5091   -1.3503    0.8527 H   0  0  0  0  0  0  0  0  0  0  0  0
  1  2  1  0  0  0  0
  2  3  1  0  0  0  0
  3  4  2  0  0  0  0
  3  5  1  0  0  0  0
  1  6  1  0  0  0  0
  1  7  1  0  0  0  0
  1  8  1  0  0  0  0
  2  9  1  0  0  0  0
  2 10  1  0  0  0  0
  5 11  1  0  0  0  0
M  END
