 xtb: 6.7.1 (edcfbbe)
          04042516023D

 14 13  0     0  0            999 V2000
   -2.1043   -0.5552   -0.7107 C   0  0  0  0  0  0  0  0  0  0  0  0
   -1.3563   -0.3220    0.6056 C   0  0  0  0  0  0  0  0  0  0  0  0
   -0.0083    0.2817    0.3113 C   0  0  0  0  0  0  0  0  0  0  0  0
    0.2472    1.4675    0.3536 O   0  0  0  0  0  0  0  0  0  0  0  0
    0.8696   -0.6456   -0.0495 O   0  0  0  0  0  0  0  0  0  0  0  0
    2.1880   -0.2339   -0.4211 C   0  0  0  0  0  0  0  0  0  0  0  0
   -1.5512   -1.2467   -1.3409 H   0  0  0  0  0  0  0  0  0  0  0  0
   -3.0850   -0.9729   -0.5050 H   0  0  0  0  0  0  0  0  0  0  0  0
   -2.2290    0.3835   -1.2454 H   0  0  0  0  0  0  0  0  0  0  0  0
   -1.2114   -1.2705    1.1208 H   0  0  0  0  0  0  0  0  0  0  0  0
   -1.9136    0.3692    1.2367 H   0  0  0  0  0  0  0  0  0  0  0  0
    2.1631    0.7809   -0.8200 H   0  0  0  0  0  0  0  0  0  0  0  0
    2.5294   -0.9425   -1.1705 H   0  0  0  0  0  0  0  0  0  0  0  0
    2.8330   -0.2650    0.4570 H   0  0  0  0  0  0  0  0  0  0  0  0
  1  2  1  0  0  0  0
  2  3  1  0  0  0  0
  3  4  2  0  0  0  0
  3  5  1  0  0  0  0
  5  6  1  0  0  0  0
  1  7  1  0  0  0  0
  1  8  1  0  0  0  0
  1  9  1  0  0  0  0
  2 10  1  0  0  0  0
  2 11  1  0  0  0  0
  6 12  1  0  0  0  0
  6 13  1  0  0  0  0
  6 14  1  0  0  0  0
M  END
