17
 xtb: 6.7.1 (edcfbbe)
C           -2.90437728611102        1.47905293695392        0.00459768598061
C           -1.81339514129476        0.44932863659514       -0.01031768255380
C           -2.10622509556524       -0.91909017957446       -0.00327029878024
C           -1.09528881200910       -1.87838267120533        0.00679839401797
C            0.23776343079349       -1.49545051448237        0.00906575541975
C            0.51819104570537       -0.13196132171627        0.00022727064590
C           -0.47505033066917        0.84091440346395       -0.01084322262584
N            1.91844503611690        0.29752255577621       -0.00070850659356
O            2.16198876807741        1.50387716890643       -0.01536890955210
O            2.79535061030116       -0.56647749286696        0.01288006795495
H           -3.86191997410245        1.04116392201467       -0.28573201129885
H           -3.01764102508462        1.90135077041186        1.00960933828154
H           -2.67391547009653        2.30670536911822       -0.67193843230082
H           -3.14442284129086       -1.23740539589545       -0.00737501051806
H           -1.34946870518505       -2.93274694742679        0.01022019434084
H            1.03521113095836       -2.22689009145974        0.01418990722120
H           -0.21008988905439        1.89139825225109       -0.01993134952432
