 xtb: 6.7.1 (edcfbbe)
          04062518003D

 24 24  0     0  0            999 V2000
   -1.7497   -1.3825   -0.4808 C   0  0  0  0  0  0  0  0  0  0  0  0
   -1.1339   -0.4821    0.6079 C   0  0  0  0  0  0  0  0  0  0  0  0
   -1.8403   -0.3768    1.4395 H   0  0  0  0  0  0  0  0  0  0  0  0
   -0.8469    0.9368    0.0780 C   0  0  0  0  0  0  0  0  0  0  0  0
   -1.1204    0.9840   -0.9884 H   0  0  0  0  0  0  0  0  0  0  0  0
    0.6483    1.2621    0.2238 C   0  0  0  0  0  0  0  0  0  0  0  0
    0.8782    1.3560    1.2927 H   0  0  0  0  0  0  0  0  0  0  0  0
    1.4613    0.1098   -0.3777 C   0  0  0  0  0  0  0  0  0  0  0  0
    1.1465   -0.0697   -1.4127 H   0  0  0  0  0  0  0  0  0  0  0  0
    1.1750   -1.1751    0.4319 C   0  0  0  0  0  0  0  0  0  0  0  0
    1.9719   -1.3123    1.1786 H   0  0  0  0  0  0  0  0  0  0  0  0
    0.0043   -1.0834    1.2115 O   0  0  0  0  0  0  0  0  0  0  0  0
    1.1434   -2.2457   -0.4572 O   0  0  0  0  0  0  0  0  0  0  0  0
    2.8307    0.3919   -0.4561 O   0  0  0  0  0  0  0  0  0  0  0  0
    0.9626    2.5091   -0.3398 O   0  0  0  0  0  0  0  0  0  0  0  0
   -1.6378    1.8463    0.8062 O   0  0  0  0  0  0  0  0  0  0  0  0
   -2.8677   -0.7960   -1.0939 O   0  0  0  0  0  0  0  0  0  0  0  0
   -2.0033   -2.3505   -0.0320 H   0  0  0  0  0  0  0  0  0  0  0  0
   -1.0210   -1.5499   -1.2772 H   0  0  0  0  0  0  0  0  0  0  0  0
    1.1423   -3.0878    0.0229 H   0  0  0  0  0  0  0  0  0  0  0  0
    3.1539    0.7245    0.3945 H   0  0  0  0  0  0  0  0  0  0  0  0
    1.0073    2.4349   -1.3041 H   0  0  0  0  0  0  0  0  0  0  0  0
   -1.3479    2.7473    0.5954 H   0  0  0  0  0  0  0  0  0  0  0  0
   -3.5671   -0.6649   -0.4380 H   0  0  0  0  0  0  0  0  0  0  0  0
  1  2  1  0  0  0  0
  2  3  1  0  0  0  0
  2  4  1  0  0  0  0
  4  5  1  0  0  0  0
  4  6  1  0  0  0  0
  6  7  1  0  0  0  0
  6  8  1  0  0  0  0
  8  9  1  0  0  0  0
  8 10  1  0  0  0  0
 10 11  1  0  0  0  0
  2 12  1  0  0  0  0
 10 12  1  0  0  0  0
 10 13  1  0  0  0  0
  8 14  1  0  0  0  0
  6 15  1  0  0  0  0
  4 16  1  0  0  0  0
  1 17  1  0  0  0  0
  1 18  1  0  0  0  0
  1 19  1  0  0  0  0
 13 20  1  0  0  0  0
 14 21  1  0  0  0  0
 15 22  1  0  0  0  0
 16 23  1  0  0  0  0
 17 24  1  0  0  0  0
M  END
