 xtb: 6.7.1 (edcfbbe)
          04062518003D

 24 24  0     0  0            999 V2000
   -2.4572   -0.8441    0.1204 C   0  0  0  0  0  0  0  0  0  0  0  0
   -1.0413   -0.4964    0.5929 C   0  0  0  0  0  0  0  0  0  0  0  0
   -0.9368   -0.7690    1.6560 H   0  0  0  0  0  0  0  0  0  0  0  0
   -0.7398    1.0172    0.4496 C   0  0  0  0  0  0  0  0  0  0  0  0
   -1.5954    1.4987   -0.0371 H   0  0  0  0  0  0  0  0  0  0  0  0
    0.4908    1.2297   -0.4493 C   0  0  0  0  0  0  0  0  0  0  0  0
    0.7999    2.2798   -0.3388 H   0  0  0  0  0  0  0  0  0  0  0  0
    1.6564    0.3464    0.0408 C   0  0  0  0  0  0  0  0  0  0  0  0
    2.4547    0.3586   -0.7127 H   0  0  0  0  0  0  0  0  0  0  0  0
    1.1895   -1.1243    0.1782 C   0  0  0  0  0  0  0  0  0  0  0  0
    1.3112   -1.4277    1.2439 H   0  0  0  0  0  0  0  0  0  0  0  0
   -0.1576   -1.2955   -0.1763 O   0  0  0  0  0  0  0  0  0  0  0  0
    1.9614   -1.9133   -0.6541 O   0  0  0  0  0  0  0  0  0  0  0  0
    2.1019    0.8751    1.2656 O   0  0  0  0  0  0  0  0  0  0  0  0
    0.1207    0.9416   -1.7690 O   0  0  0  0  0  0  0  0  0  0  0  0
   -0.5906    1.6425    1.6967 O   0  0  0  0  0  0  0  0  0  0  0  0
   -2.7523   -0.3158   -1.1460 O   0  0  0  0  0  0  0  0  0  0  0  0
   -3.1852   -0.4163    0.8117 H   0  0  0  0  0  0  0  0  0  0  0  0
   -2.5567   -1.9378    0.1135 H   0  0  0  0  0  0  0  0  0  0  0  0
    1.5034   -2.7523   -0.8186 H   0  0  0  0  0  0  0  0  0  0  0  0
    2.9713    0.5153    1.4923 H   0  0  0  0  0  0  0  0  0  0  0  0
    0.8307    1.1895   -2.3780 H   0  0  0  0  0  0  0  0  0  0  0  0
    0.3087    1.4781    2.0284 H   0  0  0  0  0  0  0  0  0  0  0  0
   -2.0114   -0.5087   -1.7403 H   0  0  0  0  0  0  0  0  0  0  0  0
  1  2  1  0  0  0  0
  2  3  1  0  0  0  0
  2  4  1  0  0  0  0
  4  5  1  0  0  0  0
  4  6  1  0  0  0  0
  6  7  1  0  0  0  0
  6  8  1  0  0  0  0
  8  9  1  0  0  0  0
  8 10  1  0  0  0  0
 10 11  1  0  0  0  0
  2 12  1  0  0  0  0
 10 12  1  0  0  0  0
 10 13  1  0  0  0  0
  8 14  1  0  0  0  0
  6 15  1  0  0  0  0
  4 16  1  0  0  0  0
  1 17  1  0  0  0  0
  1 18  1  0  0  0  0
  1 19  1  0  0  0  0
 13 20  1  0  0  0  0
 14 21  1  0  0  0  0
 15 22  1  0  0  0  0
 16 23  1  0  0  0  0
 17 24  1  0  0  0  0
M  END
