 xtb: 6.7.1 (edcfbbe)
          04062518003D

 24 24  0     0  0            999 V2000
   -2.5639   -0.8910    0.2511 C   0  0  0  0  0  0  0  0  0  0  0  0
   -1.1385   -0.4485    0.6124 C   0  0  0  0  0  0  0  0  0  0  0  0
   -1.0470   -0.3917    1.7073 H   0  0  0  0  0  0  0  0  0  0  0  0
   -0.8350    0.9409    0.0326 C   0  0  0  0  0  0  0  0  0  0  0  0
   -1.0829    0.9306   -1.0411 H   0  0  0  0  0  0  0  0  0  0  0  0
    0.6560    1.2850    0.2113 C   0  0  0  0  0  0  0  0  0  0  0  0
    0.8507    1.4103    1.2844 H   0  0  0  0  0  0  0  0  0  0  0  0
    1.5255    0.1443   -0.3375 C   0  0  0  0  0  0  0  0  0  0  0  0
    1.3360    0.0265   -1.4116 H   0  0  0  0  0  0  0  0  0  0  0  0
    1.1070   -1.1636    0.3754 C   0  0  0  0  0  0  0  0  0  0  0  0
    1.2498   -1.0530    1.4638 H   0  0  0  0  0  0  0  0  0  0  0  0
   -0.2538   -1.4266    0.0973 O   0  0  0  0  0  0  0  0  0  0  0  0
    1.8576   -2.2553    0.0066 O   0  0  0  0  0  0  0  0  0  0  0  0
    2.8987    0.3987   -0.2351 O   0  0  0  0  0  0  0  0  0  0  0  0
    0.9573    2.5348   -0.3589 O   0  0  0  0  0  0  0  0  0  0  0  0
   -1.6434    1.8704    0.7092 O   0  0  0  0  0  0  0  0  0  0  0  0
   -2.7346   -1.0555   -1.1314 O   0  0  0  0  0  0  0  0  0  0  0  0
   -3.2562   -0.1084    0.5643 H   0  0  0  0  0  0  0  0  0  0  0  0
   -2.7908   -1.8206    0.7851 H   0  0  0  0  0  0  0  0  0  0  0  0
    1.7488   -2.4374   -0.9399 H   0  0  0  0  0  0  0  0  0  0  0  0
    3.1545    0.5170    0.6905 H   0  0  0  0  0  0  0  0  0  0  0  0
    1.0347    2.4532   -1.3205 H   0  0  0  0  0  0  0  0  0  0  0  0
   -1.3414    2.7630    0.4775 H   0  0  0  0  0  0  0  0  0  0  0  0
   -2.1443   -1.7641   -1.4261 H   0  0  0  0  0  0  0  0  0  0  0  0
  1  2  1  0  0  0  0
  2  3  1  0  0  0  0
  2  4  1  0  0  0  0
  4  5  1  0  0  0  0
  4  6  1  0  0  0  0
  6  7  1  0  0  0  0
  6  8  1  0  0  0  0
  8  9  1  0  0  0  0
  8 10  1  0  0  0  0
 10 11  1  0  0  0  0
  2 12  1  0  0  0  0
 10 12  1  0  0  0  0
 10 13  1  0  0  0  0
  8 14  1  0  0  0  0
  6 15  1  0  0  0  0
  4 16  1  0  0  0  0
  1 17  1  0  0  0  0
  1 18  1  0  0  0  0
  1 19  1  0  0  0  0
 13 20  1  0  0  0  0
 14 21  1  0  0  0  0
 15 22  1  0  0  0  0
 16 23  1  0  0  0  0
 17 24  1  0  0  0  0
M  END
