12
 xtb: 6.7.1 (edcfbbe)
C            1.94676897066224       -0.14119731650780       -0.98322357851733
O            1.11751846888037       -0.31571676380044        0.20913207770294
S           -0.48285349517644       -0.05875009874355        0.03458961841735
O           -1.06047971346806       -0.59237886512163        1.27417516508186
O           -0.93115405505986       -0.59944122517109       -1.25854848350801
C           -0.62637229363192        1.72394189684746        0.01659253505448
H            1.66375449892496       -0.86612548891271       -1.74834809201419
H            2.96196627415382       -0.33346864378531       -0.63679786314071
H            1.87157500719734        0.88160189336017       -1.36146448127049
H           -0.21004962603030        2.11104778459859        0.94877016687744
H           -0.09283288939174        2.11443981326860       -0.85296062882754
H           -1.69304625345969        1.95278784652705       -0.05934506595202
