31
 xtb: 6.7.1 (edcfbbe)
C            3.69464813178389        0.35637106400776        0.08866928291990
C            2.22496408518620        0.32166103469583       -0.31992764304619
H            2.16268507607077        0.43519354151870       -1.41283905503787
C            1.43511867435083        1.46799542660440        0.31599538876938
C           -0.04824828137963        1.40642194687668       -0.04897996610264
C           -0.67283113097696        0.06530064593512        0.36381928899891
H           -0.51334028660073       -0.05729992131677        1.44723762655009
C            0.10749250908003       -1.06453124641138       -0.32106369859505
H            0.01583925444185       -0.95658738488725       -1.41320122654625
C            1.58151526029857       -1.01724858929804        0.05199922329615
O           -0.37385874126143       -2.37557125948724        0.05857804983388
C           -2.19830051229037       -0.01356390279135        0.12847943368686
C           -2.95095877558044        1.01660516344499        0.97495897806295
C           -2.60301382974543        0.11395868849428       -1.34227603070634
H            4.16077449661713        1.30643103693682       -0.19466593714320
H            3.79419290249526        0.24318785182120        1.17501478459522
H            4.25971742086051       -0.45285901684530       -0.38684818227632
H            1.54473432087047        1.40876567476040        1.40890358325506
H            1.86127026877060        2.42948290012566        0.00355290902886
H           -0.58317423826870        2.23240092450506        0.43134316239197
H           -0.15657532329545        1.54384881059153       -1.13331371054737
H            1.67470578647956       -1.17436019687270        1.13676872205684
H            2.10793350855978       -1.84069116013897       -0.44619105294581
H           -1.26108555190085       -2.48126083310665       -0.30763215773067
H           -2.52211593873285       -1.00319656797723        0.48083875976796
H           -2.79084201193414        2.03525070622479        0.60528702099232
H           -2.63130816087006        0.98215455886778        2.02271003068910
H           -4.02862200630720        0.82294261086466        0.94466692191103
H           -2.33761746635470        1.09860637535356       -1.74252050422230
H           -3.68723180971160       -0.00261316063191       -1.44648791482114
H           -2.12812713004991       -0.64615547180554       -1.97166820425174
