 xtb: 6.7.1 (edcfbbe)
          04062518003D

 24 24  0     0  0            999 V2000
   -2.2072   -0.9821   -0.4021 C   0  0  0  0  0  0  0  0  0  0  0  0
   -1.1739   -0.2011    0.4277 C   0  0  0  0  0  0  0  0  0  0  0  0
   -1.6672    0.2038    1.3206 H   0  0  0  0  0  0  0  0  0  0  0  0
   -0.5991    0.9644   -0.4006 C   0  0  0  0  0  0  0  0  0  0  0  0
   -0.4691    0.6397   -1.4406 H   0  0  0  0  0  0  0  0  0  0  0  0
    0.7753    1.3274    0.1801 C   0  0  0  0  0  0  0  0  0  0  0  0
    0.6973    1.4604    1.2664 H   0  0  0  0  0  0  0  0  0  0  0  0
    1.7258    0.1498   -0.0942 C   0  0  0  0  0  0  0  0  0  0  0  0
    2.0012    0.1497   -1.1607 H   0  0  0  0  0  0  0  0  0  0  0  0
    1.0111   -1.1886    0.1878 C   0  0  0  0  0  0  0  0  0  0  0  0
    1.6743   -1.7900    0.8258 H   0  0  0  0  0  0  0  0  0  0  0  0
   -0.1492   -1.0390    0.9612 O   0  0  0  0  0  0  0  0  0  0  0  0
    0.7645   -1.8104   -1.0342 O   0  0  0  0  0  0  0  0  0  0  0  0
    2.8769    0.2076    0.7075 O   0  0  0  0  0  0  0  0  0  0  0  0
    1.2842    2.5390   -0.3118 O   0  0  0  0  0  0  0  0  0  0  0  0
   -1.4805    2.0514   -0.4611 O   0  0  0  0  0  0  0  0  0  0  0  0
   -2.8026   -2.0458    0.2947 O   0  0  0  0  0  0  0  0  0  0  0  0
   -1.7180   -1.4298   -1.2691 H   0  0  0  0  0  0  0  0  0  0  0  0
   -2.9603   -0.2632   -0.7521 H   0  0  0  0  0  0  0  0  0  0  0  0
    0.4742   -2.7237   -0.8861 H   0  0  0  0  0  0  0  0  0  0  0  0
    3.2759    1.0872    0.6168 H   0  0  0  0  0  0  0  0  0  0  0  0
    1.1791    2.5764   -1.2736 H   0  0  0  0  0  0  0  0  0  0  0  0
   -1.5001    2.5123    0.3908 H   0  0  0  0  0  0  0  0  0  0  0  0
   -3.2408   -1.7105    1.0894 H   0  0  0  0  0  0  0  0  0  0  0  0
  1  2  1  0  0  0  0
  2  3  1  0  0  0  0
  2  4  1  0  0  0  0
  4  5  1  0  0  0  0
  4  6  1  0  0  0  0
  6  7  1  0  0  0  0
  6  8  1  0  0  0  0
  8  9  1  0  0  0  0
  8 10  1  0  0  0  0
 10 11  1  0  0  0  0
  2 12  1  0  0  0  0
 10 12  1  0  0  0  0
 10 13  1  0  0  0  0
  8 14  1  0  0  0  0
  6 15  1  0  0  0  0
  4 16  1  0  0  0  0
  1 17  1  0  0  0  0
  1 18  1  0  0  0  0
  1 19  1  0  0  0  0
 13 20  1  0  0  0  0
 14 21  1  0  0  0  0
 15 22  1  0  0  0  0
 16 23  1  0  0  0  0
 17 24  1  0  0  0  0
M  END
