 xtb: 6.7.1 (edcfbbe)
          04052519393D

 23 24  0     0  0            999 V2000
    4.4811   -0.2837   -0.0355 C   0  0  0  0  0  0  0  0  0  0  0  0
    3.6583   -1.1775    0.6287 C   0  0  0  0  0  0  0  0  0  0  0  0
    2.2907   -0.9692    0.6781 C   0  0  0  0  0  0  0  0  0  0  0  0
    1.7465    0.1388    0.0432 C   0  0  0  0  0  0  0  0  0  0  0  0
    2.5694    1.0434   -0.6183 C   0  0  0  0  0  0  0  0  0  0  0  0
    3.9343    0.8293   -0.6536 C   0  0  0  0  0  0  0  0  0  0  0  0
    0.3481    0.3958    0.0797 N   0  0  0  0  0  0  0  0  0  0  0  0
   -0.5879   -0.6301   -0.0802 C   0  0  0  0  0  0  0  0  0  0  0  0
   -0.2375   -1.8005   -0.2688 O   0  0  0  0  0  0  0  0  0  0  0  0
   -1.9421   -0.1902   -0.0247 C   0  0  0  0  0  0  0  0  0  0  0  0
   -2.3127    1.1321    0.1433 C   0  0  0  0  0  0  0  0  0  0  0  0
   -1.2075    2.0398    0.2529 C   0  0  0  0  0  0  0  0  0  0  0  0
    0.0236    1.6710    0.2162 N   0  0  0  0  0  0  0  0  0  0  0  0
   -3.5763    1.5537    0.1963 N   0  0  0  0  0  0  0  0  0  0  0  0
   -3.1474   -1.4368   -0.2087 Cl  0  0  0  0  0  0  0  0  0  0  0  0
    5.5457   -0.4540   -0.0687 H   0  0  0  0  0  0  0  0  0  0  0  0
    4.0786   -2.0415    1.1196 H   0  0  0  0  0  0  0  0  0  0  0  0
    1.6509   -1.6646    1.1968 H   0  0  0  0  0  0  0  0  0  0  0  0
    2.1288    1.9048   -1.0929 H   0  0  0  0  0  0  0  0  0  0  0  0
    4.5710    1.5308   -1.1691 H   0  0  0  0  0  0  0  0  0  0  0  0
   -1.3718    3.0979    0.3752 H   0  0  0  0  0  0  0  0  0  0  0  0
   -3.7836    2.5293    0.3165 H   0  0  0  0  0  0  0  0  0  0  0  0
   -4.3158    0.8764    0.1121 H   0  0  0  0  0  0  0  0  0  0  0  0
  1  2  4  0  0  0  0
  2  3  4  0  0  0  0
  3  4  4  0  0  0  0
  4  5  4  0  0  0  0
  1  6  4  0  0  0  0
  5  6  4  0  0  0  0
  4  7  1  0  0  0  0
  7  8  1  0  0  0  0
  8  9  2  0  0  0  0
  8 10  1  0  0  0  0
 10 11  4  0  0  0  0
 11 12  1  0  0  0  0
  7 13  1  0  0  0  0
 12 13  2  0  0  0  0
 11 14  4  0  0  0  0
 10 15  1  0  0  0  0
  1 16  1  0  0  0  0
  2 17  1  0  0  0  0
  3 18  1  0  0  0  0
  5 19  1  0  0  0  0
  6 20  1  0  0  0  0
 12 21  1  0  0  0  0
 14 22  1  0  0  0  0
 14 23  1  0  0  0  0
M  END
