 xtb: 6.7.1 (edcfbbe)
          04042519143D

 15 14  0     0  0            999 V2000
   -1.3528   -0.8864    0.3916 C   0  0  0  0  0  0  0  0  0  0  0  0
   -0.5905    0.0826   -0.5090 C   0  0  0  0  0  0  0  0  0  0  0  0
   -0.7099    1.5148    0.0117 C   0  0  0  0  0  0  0  0  0  0  0  0
    0.8805   -0.3476   -0.6333 C   0  0  0  0  0  0  0  0  0  0  0  0
    1.5774   -0.3849    0.5929 O   0  0  0  0  0  0  0  0  0  0  0  0
   -2.3802   -0.5574    0.5234 H   0  0  0  0  0  0  0  0  0  0  0  0
   -0.8742   -0.9419    1.3669 H   0  0  0  0  0  0  0  0  0  0  0  0
   -1.3592   -1.8838   -0.0412 H   0  0  0  0  0  0  0  0  0  0  0  0
   -1.0130    0.0411   -1.5184 H   0  0  0  0  0  0  0  0  0  0  0  0
   -1.7458    1.8411   -0.0328 H   0  0  0  0  0  0  0  0  0  0  0  0
   -0.1111    2.1949   -0.5903 H   0  0  0  0  0  0  0  0  0  0  0  0
   -0.3852    1.5762    1.0480 H   0  0  0  0  0  0  0  0  0  0  0  0
    0.9312   -1.3683   -1.0212 H   0  0  0  0  0  0  0  0  0  0  0  0
    1.3984    0.3147   -1.3412 H   0  0  0  0  0  0  0  0  0  0  0  0
    1.6212    0.5124    0.9504 H   0  0  0  0  0  0  0  0  0  0  0  0
  1  2  1  0  0  0  0
  2  3  1  0  0  0  0
  2  4  1  0  0  0  0
  4  5  1  0  0  0  0
  1  6  1  0  0  0  0
  1  7  1  0  0  0  0
  1  8  1  0  0  0  0
  2  9  1  0  0  0  0
  3 10  1  0  0  0  0
  3 11  1  0  0  0  0
  3 12  1  0  0  0  0
  4 13  1  0  0  0  0
  4 14  1  0  0  0  0
  5 15  1  0  0  0  0
M  END
