 xtb: 6.7.1 (edcfbbe)
          04032521373D

 14 13  0     0  0            999 V2000
   -0.9210    1.3817   -0.4486 C   0  0  0  0  0  0  0  0  0  0  0  0
   -0.4734    0.0001   -0.0000 C   0  0  0  0  0  0  0  0  0  0  0  0
   -0.9206   -1.0793   -0.9723 C   0  0  0  0  0  0  0  0  0  0  0  0
   -0.9207   -0.3024    1.4208 C   0  0  0  0  0  0  0  0  0  0  0  0
    1.3615   -0.0003    0.0003 Cl  0  0  0  0  0  0  0  0  0  0  0  0
   -0.5513    1.5992   -1.4473 H   0  0  0  0  0  0  0  0  0  0  0  0
   -2.0073    1.4197   -0.4610 H   0  0  0  0  0  0  0  0  0  0  0  0
   -0.5515    2.1443    0.2321 H   0  0  0  0  0  0  0  0  0  0  0  0
   -0.5507   -2.0529   -0.6613 H   0  0  0  0  0  0  0  0  0  0  0  0
   -2.0069   -1.1094   -0.9990 H   0  0  0  0  0  0  0  0  0  0  0  0
   -0.5512   -0.8710   -1.9731 H   0  0  0  0  0  0  0  0  0  0  0  0
   -2.0069   -0.3106    1.4601 H   0  0  0  0  0  0  0  0  0  0  0  0
   -0.5508    0.4537    2.1085 H   0  0  0  0  0  0  0  0  0  0  0  0
   -0.5511   -1.2732    1.7408 H   0  0  0  0  0  0  0  0  0  0  0  0
  1  2  1  0  0  0  0
  2  3  1  0  0  0  0
  2  4  1  0  0  0  0
  2  5  1  0  0  0  0
  1  6  1  0  0  0  0
  1  7  1  0  0  0  0
  1  8  1  0  0  0  0
  3  9  1  0  0  0  0
  3 10  1  0  0  0  0
  3 11  1  0  0  0  0
  4 12  1  0  0  0  0
  4 13  1  0  0  0  0
  4 14  1  0  0  0  0
M  END
