 xtb: 6.7.1 (edcfbbe)
          04062518003D

 24 24  0     0  0            999 V2000
   -2.3081   -0.9567    0.7294 C   0  0  0  0  0  0  0  0  0  0  0  0
   -0.8662   -0.4117    0.7896 C   0  0  0  0  0  0  0  0  0  0  0  0
   -0.6783   -0.0453    1.8123 H   0  0  0  0  0  0  0  0  0  0  0  0
   -0.6310    0.7308   -0.2073 C   0  0  0  0  0  0  0  0  0  0  0  0
   -0.6713    0.3335   -1.2270 H   0  0  0  0  0  0  0  0  0  0  0  0
    0.7684    1.3077    0.0380 C   0  0  0  0  0  0  0  0  0  0  0  0
    0.7422    1.8666    0.9913 H   0  0  0  0  0  0  0  0  0  0  0  0
    1.8105    0.1783    0.1921 C   0  0  0  0  0  0  0  0  0  0  0  0
    2.6021    0.3611   -0.5455 H   0  0  0  0  0  0  0  0  0  0  0  0
    1.2157   -1.1986   -0.1433 C   0  0  0  0  0  0  0  0  0  0  0  0
    1.9269   -1.9663    0.2004 H   0  0  0  0  0  0  0  0  0  0  0  0
    0.0333   -1.4918    0.5487 O   0  0  0  0  0  0  0  0  0  0  0  0
    1.0426   -1.2636   -1.5259 O   0  0  0  0  0  0  0  0  0  0  0  0
    2.3211    0.1035    1.4985 O   0  0  0  0  0  0  0  0  0  0  0  0
    1.1806    2.1610   -1.0001 O   0  0  0  0  0  0  0  0  0  0  0  0
   -1.6245    1.7231   -0.1368 O   0  0  0  0  0  0  0  0  0  0  0  0
   -2.8290   -1.0697   -0.5689 O   0  0  0  0  0  0  0  0  0  0  0  0
   -2.9519   -0.3228    1.3488 H   0  0  0  0  0  0  0  0  0  0  0  0
   -2.2953   -1.9667    1.1432 H   0  0  0  0  0  0  0  0  0  0  0  0
    0.7115   -2.1416   -1.7715 H   0  0  0  0  0  0  0  0  0  0  0  0
    2.9497    0.8257    1.6448 H   0  0  0  0  0  0  0  0  0  0  0  0
    0.4277    2.7036   -1.2809 H   0  0  0  0  0  0  0  0  0  0  0  0
   -1.6262    2.1274    0.7437 H   0  0  0  0  0  0  0  0  0  0  0  0
   -2.9806   -0.1809   -0.9235 H   0  0  0  0  0  0  0  0  0  0  0  0
  1  2  1  0  0  0  0
  2  3  1  0  0  0  0
  2  4  1  0  0  0  0
  4  5  1  0  0  0  0
  4  6  1  0  0  0  0
  6  7  1  0  0  0  0
  6  8  1  0  0  0  0
  8  9  1  0  0  0  0
  8 10  1  0  0  0  0
 10 11  1  0  0  0  0
  2 12  1  0  0  0  0
 10 12  1  0  0  0  0
 10 13  1  0  0  0  0
  8 14  1  0  0  0  0
  6 15  1  0  0  0  0
  4 16  1  0  0  0  0
  1 17  1  0  0  0  0
  1 18  1  0  0  0  0
  1 19  1  0  0  0  0
 13 20  1  0  0  0  0
 14 21  1  0  0  0  0
 15 22  1  0  0  0  0
 16 23  1  0  0  0  0
 17 24  1  0  0  0  0
M  END
