5
 xtb: 6.7.1 (edcfbbe)
C           -0.00004272092587        0.98838227664784       -0.00001092116628
Br          -1.63118232431476       -0.08763729262053       -0.00009062669592
Br           1.63123958907660       -0.08766291250628        0.00007449437452
H           -0.00080686728940        1.58956180125852        0.90498071406530
H           -0.00038688415932        1.59054103789580       -0.90435035478047
