27
 xtb: 6.7.1 (edcfbbe)
C           -3.43955638120949        0.57642642442246       -0.01803396235101
C           -1.94320764244438        0.49195113899599        0.03930174102866
C           -1.14275293065089        1.48606090948711       -0.36712640690331
C            0.35589195303392        1.43906373975986       -0.34381031968211
C            0.88896336763647        0.00706759847043       -0.20451274420518
H            0.66816618722333       -0.51968308443981       -1.14379153472483
C            0.11365744192059       -0.68893883762405        0.91988048243225
C           -1.37126544774907       -0.79402983225391        0.58577104969812
H           -1.92341445929570       -1.07077584699515        1.49230928109537
O           -1.63869543393867       -1.89214230300821       -0.33238950279438
C            2.39226457610088       -0.03200669349082       -0.00356830763000
C            2.97504316658743        0.45278305289665        1.09707534524003
C            3.17986079206324       -0.64579170817506       -1.12130766247597
H           -3.85840384914396       -0.24630351484483       -0.60917562442659
H           -3.77046904456843        1.51983103775268       -0.46060407295891
H           -3.87249434567488        0.49313414666267        0.98680637270487
H           -1.59655983585313        2.40535967104656       -0.73720247585828
H            0.75497412725234        1.90604689800114       -1.25294419181895
H            0.72751996031657        2.04682445112143        0.49482580610861
H            0.51007010161201       -1.69250032535769        1.10863030503438
H            0.22432503978986       -0.10978823784172        1.84559811043099
H           -1.31394036451334       -1.61817170086341       -1.20118899557678
H            4.05424017678750        0.42181915376986        1.22216655215195
H            2.39604787685214        0.89722024945185        1.90273806759641
H            2.98613650891382       -0.11536613411007       -2.06243702296417
H            4.25484937912924       -0.62975436343508       -0.92325616470614
H            2.86699857649552       -1.68531277033468       -1.28322243858600
