 xtb: 6.7.1 (edcfbbe)
          04042517583D

 13 12  0     0  0            999 V2000
   -1.6061   -0.0920    0.5076 C   0  0  0  0  0  0  0  0  0  0  0  0
   -0.6484    0.4979   -0.5223 C   0  0  0  0  0  0  0  0  0  0  0  0
    0.6677   -0.2745   -0.6262 C   0  0  0  0  0  0  0  0  0  0  0  0
    1.5048   -0.0475    0.5458 N   0  0  0  0  0  0  0  0  0  0  0  0
   -1.1900   -0.0236    1.5096 H   0  0  0  0  0  0  0  0  0  0  0  0
   -2.5482    0.4500    0.4968 H   0  0  0  0  0  0  0  0  0  0  0  0
   -1.8089   -1.1379    0.2850 H   0  0  0  0  0  0  0  0  0  0  0  0
   -0.4203    1.5318   -0.2619 H   0  0  0  0  0  0  0  0  0  0  0  0
   -1.1277    0.4896   -1.5029 H   0  0  0  0  0  0  0  0  0  0  0  0
    0.4434   -1.3426   -0.7950 H   0  0  0  0  0  0  0  0  0  0  0  0
    1.2258    0.0887   -1.4942 H   0  0  0  0  0  0  0  0  0  0  0  0
    2.3804   -0.5473    0.4425 H   0  0  0  0  0  0  0  0  0  0  0  0
    1.0428   -0.4155    1.3705 H   0  0  0  0  0  0  0  0  0  0  0  0
  1  2  1  0  0  0  0
  2  3  1  0  0  0  0
  3  4  1  0  0  0  0
  1  5  1  0  0  0  0
  1  6  1  0  0  0  0
  1  7  1  0  0  0  0
  2  8  1  0  0  0  0
  2  9  1  0  0  0  0
  3 10  1  0  0  0  0
  3 11  1  0  0  0  0
  4 12  1  0  0  0  0
  4 13  1  0  0  0  0
M  END
