 xtb: 6.7.1 (edcfbbe)
          04062518003D

 24 24  0     0  0            999 V2000
   -2.2810   -0.9563   -0.3117 C   0  0  0  0  0  0  0  0  0  0  0  0
   -1.1329   -0.2358    0.4080 C   0  0  0  0  0  0  0  0  0  0  0  0
   -1.5257    0.1975    1.3372 H   0  0  0  0  0  0  0  0  0  0  0  0
   -0.5494    0.8834   -0.4665 C   0  0  0  0  0  0  0  0  0  0  0  0
   -0.3778    0.5005   -1.4801 H   0  0  0  0  0  0  0  0  0  0  0  0
    0.7925    1.3191    0.1440 C   0  0  0  0  0  0  0  0  0  0  0  0
    0.6651    1.5406    1.2105 H   0  0  0  0  0  0  0  0  0  0  0  0
    1.7930    0.1546    0.0320 C   0  0  0  0  0  0  0  0  0  0  0  0
    2.2836    0.2081   -0.9491 H   0  0  0  0  0  0  0  0  0  0  0  0
    1.0567   -1.2077    0.0875 C   0  0  0  0  0  0  0  0  0  0  0  0
    1.6771   -1.9149    0.6571 H   0  0  0  0  0  0  0  0  0  0  0  0
   -0.1363   -1.1738    0.8245 O   0  0  0  0  0  0  0  0  0  0  0  0
    0.8669   -1.6388   -1.2264 O   0  0  0  0  0  0  0  0  0  0  0  0
    2.7231    0.2858    1.0754 O   0  0  0  0  0  0  0  0  0  0  0  0
    1.2789    2.5050   -0.4207 O   0  0  0  0  0  0  0  0  0  0  0  0
   -1.4484    1.9458   -0.6196 O   0  0  0  0  0  0  0  0  0  0  0  0
   -3.0065   -1.7987    0.5482 O   0  0  0  0  0  0  0  0  0  0  0  0
   -1.8771   -1.5215   -1.1616 H   0  0  0  0  0  0  0  0  0  0  0  0
   -2.9844   -0.2094   -0.6848 H   0  0  0  0  0  0  0  0  0  0  0  0
    0.6169   -2.5752   -1.2448 H   0  0  0  0  0  0  0  0  0  0  0  0
    3.5267   -0.2172    0.8810 H   0  0  0  0  0  0  0  0  0  0  0  0
    1.2960    2.4293   -1.3861 H   0  0  0  0  0  0  0  0  0  0  0  0
   -1.4986    2.4590    0.2003 H   0  0  0  0  0  0  0  0  0  0  0  0
   -2.3825   -2.3770    1.0109 H   0  0  0  0  0  0  0  0  0  0  0  0
  1  2  1  0  0  0  0
  2  3  1  0  0  0  0
  2  4  1  0  0  0  0
  4  5  1  0  0  0  0
  4  6  1  0  0  0  0
  6  7  1  0  0  0  0
  6  8  1  0  0  0  0
  8  9  1  0  0  0  0
  8 10  1  0  0  0  0
 10 11  1  0  0  0  0
  2 12  1  0  0  0  0
 10 12  1  0  0  0  0
 10 13  1  0  0  0  0
  8 14  1  0  0  0  0
  6 15  1  0  0  0  0
  4 16  1  0  0  0  0
  1 17  1  0  0  0  0
  1 18  1  0  0  0  0
  1 19  1  0  0  0  0
 13 20  1  0  0  0  0
 14 21  1  0  0  0  0
 15 22  1  0  0  0  0
 16 23  1  0  0  0  0
 17 24  1  0  0  0  0
M  END
