 xtb: 6.7.1 (edcfbbe)
          04032521453D

 14 14  0     0  0            999 V2000
   -1.1987   -1.2016    0.0089 C   0  0  0  0  0  0  0  0  0  0  0  0
    0.1807   -1.2040    0.0024 C   0  0  0  0  0  0  0  0  0  0  0  0
    0.8640    0.0000   -0.0000 C   0  0  0  0  0  0  0  0  0  0  0  0
    0.1807    1.2040    0.0025 C   0  0  0  0  0  0  0  0  0  0  0  0
   -1.1987    1.2017    0.0088 C   0  0  0  0  0  0  0  0  0  0  0  0
   -1.9174    0.0000    0.0106 C   0  0  0  0  0  0  0  0  0  0  0  0
   -3.2815   -0.0000   -0.0478 N   0  0  0  0  0  0  0  0  0  0  0  0
    2.6139   -0.0000   -0.0033 Cl  0  0  0  0  0  0  0  0  0  0  0  0
   -1.7320   -2.1397    0.0103 H   0  0  0  0  0  0  0  0  0  0  0  0
    0.7261   -2.1345    0.0020 H   0  0  0  0  0  0  0  0  0  0  0  0
    0.7261    2.1344    0.0018 H   0  0  0  0  0  0  0  0  0  0  0  0
   -1.7319    2.1397    0.0103 H   0  0  0  0  0  0  0  0  0  0  0  0
   -3.7571   -0.8553    0.1807 H   0  0  0  0  0  0  0  0  0  0  0  0
   -3.7571    0.8554    0.1806 H   0  0  0  0  0  0  0  0  0  0  0  0
  1  2  4  0  0  0  0
  2  3  4  0  0  0  0
  3  4  4  0  0  0  0
  4  5  4  0  0  0  0
  1  6  4  0  0  0  0
  5  6  4  0  0  0  0
  6  7  4  0  0  0  0
  3  8  1  0  0  0  0
  1  9  1  0  0  0  0
  2 10  1  0  0  0  0
  4 11  1  0  0  0  0
  5 12  1  0  0  0  0
  7 13  1  0  0  0  0
  7 14  1  0  0  0  0
M  END
