 xtb: 6.7.1 (edcfbbe)
          04062518003D

 24 24  0     0  0            999 V2000
   -2.2136   -1.2096    0.0693 C   0  0  0  0  0  0  0  0  0  0  0  0
   -0.8597   -0.5746    0.4070 C   0  0  0  0  0  0  0  0  0  0  0  0
   -0.8296   -0.3402    1.4809 H   0  0  0  0  0  0  0  0  0  0  0  0
   -0.6223    0.7234   -0.3790 C   0  0  0  0  0  0  0  0  0  0  0  0
   -0.7195    0.5038   -1.4564 H   0  0  0  0  0  0  0  0  0  0  0  0
    0.7980    1.2831   -0.1282 C   0  0  0  0  0  0  0  0  0  0  0  0
    0.6879    2.1315    0.5562 H   0  0  0  0  0  0  0  0  0  0  0  0
    1.7238    0.2231    0.5063 C   0  0  0  0  0  0  0  0  0  0  0  0
    2.7584    0.4836    0.2404 H   0  0  0  0  0  0  0  0  0  0  0  0
    1.4215   -1.1393   -0.1264 C   0  0  0  0  0  0  0  0  0  0  0  0
    2.0677   -1.9066    0.3275 H   0  0  0  0  0  0  0  0  0  0  0  0
    0.1094   -1.5750    0.1119 O   0  0  0  0  0  0  0  0  0  0  0  0
    1.6713   -1.0223   -1.4959 O   0  0  0  0  0  0  0  0  0  0  0  0
    1.5753    0.0951    1.8950 O   0  0  0  0  0  0  0  0  0  0  0  0
    1.3780    1.8116   -1.2916 O   0  0  0  0  0  0  0  0  0  0  0  0
   -1.5391    1.7233   -0.0092 O   0  0  0  0  0  0  0  0  0  0  0  0
   -3.2499   -0.3816    0.5449 O   0  0  0  0  0  0  0  0  0  0  0  0
   -2.2375   -2.1961    0.5448 H   0  0  0  0  0  0  0  0  0  0  0  0
   -2.2834   -1.3386   -1.0185 H   0  0  0  0  0  0  0  0  0  0  0  0
    1.5387   -1.8800   -1.9286 H   0  0  0  0  0  0  0  0  0  0  0  0
    1.8834    0.9037    2.3303 H   0  0  0  0  0  0  0  0  0  0  0  0
    1.5679    1.0797   -1.9015 H   0  0  0  0  0  0  0  0  0  0  0  0
   -2.4094    1.3125    0.1422 H   0  0  0  0  0  0  0  0  0  0  0  0
   -4.1020   -0.8203    0.4104 H   0  0  0  0  0  0  0  0  0  0  0  0
  1  2  1  0  0  0  0
  2  3  1  0  0  0  0
  2  4  1  0  0  0  0
  4  5  1  0  0  0  0
  4  6  1  0  0  0  0
  6  7  1  0  0  0  0
  6  8  1  0  0  0  0
  8  9  1  0  0  0  0
  8 10  1  0  0  0  0
 10 11  1  0  0  0  0
  2 12  1  0  0  0  0
 10 12  1  0  0  0  0
 10 13  1  0  0  0  0
  8 14  1  0  0  0  0
  6 15  1  0  0  0  0
  4 16  1  0  0  0  0
  1 17  1  0  0  0  0
  1 18  1  0  0  0  0
  1 19  1  0  0  0  0
 13 20  1  0  0  0  0
 14 21  1  0  0  0  0
 15 22  1  0  0  0  0
 16 23  1  0  0  0  0
 17 24  1  0  0  0  0
M  END
