19
 xtb: 6.7.1 (edcfbbe)
C           -2.21099171136877        0.69753436811524        0.05919843215222
C           -2.21103755884705       -0.69740881149247        0.05944551144676
C           -1.00791856089913       -1.40528703252888       -0.00091475333978
C            0.18895693102479       -0.70040376977417       -0.05480478920809
C            0.18900605868242        0.70033480245575       -0.05495914174686
C           -1.00782765813185        1.40531376906598       -0.00134448259249
C            1.60117652565138        1.22181385221935       -0.14145950916948
C            2.44446695268132       -0.00010472091398        0.28073885197117
C            1.60108244378510       -1.22197335730875       -0.14136372266833
H           -3.15217093753584        1.23658718317702        0.11176594835200
H           -3.15224897928487       -1.23638124711916        0.11224181300364
H           -1.01123264516528       -2.49199127202053        0.00157674523608
H           -1.01106100421539        2.49201883853476        0.00080081963694
H            1.82542652996186        1.50938193595217       -1.17776127398508
H            1.77327153744037        2.10241196324479        0.48394345659232
H            3.44407644016473       -0.00016268100184       -0.16019817615429
H            2.55539514119857       -0.00006309137101        1.37036333921572
H            1.82521024622880       -1.50949420668246       -1.17768891955450
H            1.77319407555346       -2.10258785794311        0.48397467878592
