 xtb: 6.7.1 (edcfbbe)
          04062511483D

 27 27  0     0  0            999 V2000
    3.6841   -0.2831    0.1439 C   0  0  0  0  0  0  0  0  0  0  0  0
    2.2055   -0.1879    0.0055 C   0  0  0  0  0  0  0  0  0  0  0  0
    1.5607    0.9889   -0.0315 C   0  0  0  0  0  0  0  0  0  0  0  0
    0.1263    1.1228   -0.2161 C   0  0  0  0  0  0  0  0  0  0  0  0
   -0.4137    2.2253   -0.2544 O   0  0  0  0  0  0  0  0  0  0  0  0
   -0.6483   -0.1683   -0.4240 C   0  0  0  0  0  0  0  0  0  0  0  0
   -0.5347   -0.3905   -1.4953 H   0  0  0  0  0  0  0  0  0  0  0  0
    0.0097   -1.2989    0.3660 C   0  0  0  0  0  0  0  0  0  0  0  0
    1.4530   -1.4754   -0.0929 C   0  0  0  0  0  0  0  0  0  0  0  0
   -2.1511    0.0290   -0.1542 C   0  0  0  0  0  0  0  0  0  0  0  0
   -2.9842   -1.1026   -0.7513 C   0  0  0  0  0  0  0  0  0  0  0  0
   -2.4517    0.1868    1.3352 C   0  0  0  0  0  0  0  0  0  0  0  0
    4.1525    0.6949    0.0879 H   0  0  0  0  0  0  0  0  0  0  0  0
    4.0895   -0.9236   -0.6370 H   0  0  0  0  0  0  0  0  0  0  0  0
    3.9335   -0.7390    1.1011 H   0  0  0  0  0  0  0  0  0  0  0  0
    2.1006    1.9222    0.0556 H   0  0  0  0  0  0  0  0  0  0  0  0
    0.0010   -1.0541    1.4292 H   0  0  0  0  0  0  0  0  0  0  0  0
   -0.5443   -2.2258    0.2197 H   0  0  0  0  0  0  0  0  0  0  0  0
    1.9523   -2.2441    0.4984 H   0  0  0  0  0  0  0  0  0  0  0  0
    1.4675   -1.8041   -1.1373 H   0  0  0  0  0  0  0  0  0  0  0  0
   -2.4299    0.9660   -0.6518 H   0  0  0  0  0  0  0  0  0  0  0  0
   -2.7687   -2.0458   -0.2557 H   0  0  0  0  0  0  0  0  0  0  0  0
   -2.7829   -1.2120   -1.8143 H   0  0  0  0  0  0  0  0  0  0  0  0
   -4.0425   -0.8888   -0.6245 H   0  0  0  0  0  0  0  0  0  0  0  0
   -1.8332    0.9725    1.7645 H   0  0  0  0  0  0  0  0  0  0  0  0
   -2.2717   -0.7411    1.8716 H   0  0  0  0  0  0  0  0  0  0  0  0
   -3.4941    0.4637    1.4742 H   0  0  0  0  0  0  0  0  0  0  0  0
  1  2  1  0  0  0  0
  2  3  2  0  0  0  0
  3  4  1  0  0  0  0
  4  5  2  0  0  0  0
  4  6  1  0  0  0  0
  6  7  1  0  0  0  0
  6  8  1  0  0  0  0
  2  9  1  0  0  0  0
  8  9  1  0  0  0  0
  6 10  1  0  0  0  0
 10 11  1  0  0  0  0
 10 12  1  0  0  0  0
  1 13  1  0  0  0  0
  1 14  1  0  0  0  0
  1 15  1  0  0  0  0
  3 16  1  0  0  0  0
  8 17  1  0  0  0  0
  8 18  1  0  0  0  0
  9 19  1  0  0  0  0
  9 20  1  0  0  0  0
 10 21  1  0  0  0  0
 11 22  1  0  0  0  0
 11 23  1  0  0  0  0
 11 24  1  0  0  0  0
 12 25  1  0  0  0  0
 12 26  1  0  0  0  0
 12 27  1  0  0  0  0
M  END
