27
 xtb: 6.7.1 (edcfbbe)
C            3.73667492370727       -0.16569007408341        0.07418735589971
C            2.25051079842981       -0.18545641661772       -0.01136607353095
C            1.50219564181370        0.91674334974166        0.21776413376216
C            0.05614470247014        0.95451455936638        0.04996568040561
O           -0.55896482407981        2.01217181210779        0.25323381307662
C           -0.62862306580488       -0.30796658034361       -0.44896520835690
H           -0.50623879063683       -0.26045640389342       -1.54567215665530
C            0.14368063893307       -1.54389571262465        0.03209397376499
C            1.60844703047859       -1.48542625169857       -0.38065955551683
C           -2.14212964051990       -0.41530065488034       -0.15821660305793
C           -2.48672178876032       -0.26079701852606        1.32550569162273
C           -2.99436371476871        0.51713104756521       -1.02263323800831
H            4.17021837677882       -0.55614586904217       -0.85507772558510
H            4.07363788108586       -0.83748620062669        0.87370599633063
H            4.12791781375432        0.83678227492601        0.26026122205710
H            1.97461872076092        1.85728155662957        0.49324930759315
H            0.08470010001875       -1.61000325918806        1.12552537678874
H           -0.32666204405193       -2.44472462792680       -0.37519029710025
H            2.17861314875411       -2.30838459246558        0.06582818658649
H            1.70550048567998       -1.60908285259013       -1.47086053293198
H           -2.40470650997180       -1.44253225516103       -0.44809278949449
H           -2.30212894989353        0.76015439716916        1.67353702680771
H           -1.90605361569481       -0.94460126247978        1.95282277441510
H           -3.54673969923016       -0.48281777416162        1.48902349010820
H           -4.05662922421687        0.27456844822942       -0.90355358012394
H           -2.74357432372593        0.40972060566642       -2.08405052793804
H           -2.85668648203379        1.56570521455937       -0.74502786271796
