17
 xtb: 6.7.1 (edcfbbe)
C           -2.56116302830582       -0.97570663149038        0.00059918831628
C           -1.23612864283061       -0.27756268554849       -0.00084161421101
C           -1.15665453999370        1.12035703060216       -0.00064387094587
C            0.08905639841065        1.72129453074998        0.00026449029432
N            1.25282511903527        1.04635304405397        0.00082092374820
C            1.18557412088750       -0.29524305483007        0.00045002785752
C           -0.03510951029176       -0.97850157831906       -0.00040599797511
C            2.47404704270388       -1.06234247551152        0.00000203130023
H           -3.13418556489798       -0.71057780908482        0.89571115448560
H           -3.15972162562398       -0.66863038983575       -0.86356371619736
H           -2.44087038177960       -2.06097259226216       -0.02585045315276
H           -2.05680041998776        1.72762529032490       -0.00125478688425
H            0.16783687276265        2.80676762773630        0.00035788488329
H           -0.03847425585740       -2.06522334823770       -0.00100581802191
H            3.33049541526830       -0.38625160484275        0.00928431088307
H            2.53384468169637       -1.71862618993744        0.87484289909728
H            2.54175422491447       -1.70342379471758       -0.88558306512132
