12
 xtb: 6.7.1 (edcfbbe)
C           -1.94394272070133        0.47221714281462       -0.09548705446288
C           -0.88771256426927       -0.58217454567150        0.21219690306315
C            0.56315315209299       -0.15846238939678        0.16660734498665
O            1.46875235991312       -1.00489177487762        0.29208340294436
N            0.83421380759233        1.14706787496919        0.00564632092442
H           -1.92100244630594        1.29583219786310        0.62615865475059
H           -1.81909570872106        0.88525965284316       -1.10207134875145
H           -2.93943765355243        0.02196841854019       -0.04399111134642
H           -0.97445541452351       -1.42885411890623       -0.47786091345414
H           -1.04331686910736       -0.99806198210008        1.21552147255205
H            0.10460360293989        1.83228256410034       -0.10498238697681
H            1.79582513496306        1.45257423419910       -0.01926082876267
