 xtb: 6.7.1 (edcfbbe)
          04062520053D

 27 27  0     0  0            999 V2000
   -3.3307    0.4468   -0.2108 C   0  0  0  0  0  0  0  0  0  0  0  0
   -1.8500    0.5164   -0.0221 C   0  0  0  0  0  0  0  0  0  0  0  0
   -1.0936    1.5623   -0.3332 C   0  0  0  0  0  0  0  0  0  0  0  0
    0.3813    1.4984   -0.1030 C   0  0  0  0  0  0  0  0  0  0  0  0
    0.9729    0.1860   -0.6722 C   0  0  0  0  0  0  0  0  0  0  0  0
    1.0368    0.3162   -1.7566 H   0  0  0  0  0  0  0  0  0  0  0  0
    0.0564   -1.0208   -0.3912 C   0  0  0  0  0  0  0  0  0  0  0  0
   -1.1234   -0.6843    0.5414 C   0  0  0  0  0  0  0  0  0  0  0  0
   -0.7355   -0.4310    1.5368 H   0  0  0  0  0  0  0  0  0  0  0  0
   -1.9405   -1.8122    0.7695 O   0  0  0  0  0  0  0  0  0  0  0  0
    2.3788    0.0038   -0.1516 C   0  0  0  0  0  0  0  0  0  0  0  0
    3.4253    0.2642   -0.9208 C   0  0  0  0  0  0  0  0  0  0  0  0
    2.5471   -0.4561    1.2663 C   0  0  0  0  0  0  0  0  0  0  0  0
   -3.5794   -0.1791   -1.0681 H   0  0  0  0  0  0  0  0  0  0  0  0
   -3.7374    1.4393   -0.3830 H   0  0  0  0  0  0  0  0  0  0  0  0
   -3.7976    0.0107    0.6705 H   0  0  0  0  0  0  0  0  0  0  0  0
   -1.5159    2.4640   -0.7497 H   0  0  0  0  0  0  0  0  0  0  0  0
    0.8894    2.3469   -0.5609 H   0  0  0  0  0  0  0  0  0  0  0  0
    0.5749    1.5380    0.9730 H   0  0  0  0  0  0  0  0  0  0  0  0
   -0.3672   -1.3752   -1.3339 H   0  0  0  0  0  0  0  0  0  0  0  0
    0.6193   -1.8464    0.0428 H   0  0  0  0  0  0  0  0  0  0  0  0
   -2.2827   -2.1276   -0.0781 H   0  0  0  0  0  0  0  0  0  0  0  0
    4.4354    0.1686   -0.5595 H   0  0  0  0  0  0  0  0  0  0  0  0
    3.3171    0.5820   -1.9442 H   0  0  0  0  0  0  0  0  0  0  0  0
    2.4354   -1.5378    1.3306 H   0  0  0  0  0  0  0  0  0  0  0  0
    3.5370   -0.2003    1.6341 H   0  0  0  0  0  0  0  0  0  0  0  0
    1.8010   -0.0076    1.9172 H   0  0  0  0  0  0  0  0  0  0  0  0
  1  2  1  0  0  0  0
  2  3  2  0  0  0  0
  3  4  1  0  0  0  0
  4  5  1  0  0  0  0
  5  6  1  0  0  0  0
  5  7  1  0  0  0  0
  2  8  1  0  0  0  0
  7  8  1  0  0  0  0
  8  9  1  0  0  0  0
  8 10  1  0  0  0  0
  5 11  1  0  0  0  0
 11 12  2  0  0  0  0
 11 13  1  0  0  0  0
  1 14  1  0  0  0  0
  1 15  1  0  0  0  0
  1 16  1  0  0  0  0
  3 17  1  0  0  0  0
  4 18  1  0  0  0  0
  4 19  1  0  0  0  0
  7 20  1  0  0  0  0
  7 21  1  0  0  0  0
 10 22  1  0  0  0  0
 12 23  1  0  0  0  0
 12 24  1  0  0  0  0
 13 25  1  0  0  0  0
 13 26  1  0  0  0  0
 13 27  1  0  0  0  0
M  END
