 xtb: 6.7.1 (edcfbbe)
          04062518003D

 24 24  0     0  0            999 V2000
   -2.2998   -0.8684    0.7260 C   0  0  0  0  0  0  0  0  0  0  0  0
   -0.8512   -0.3766    0.7723 C   0  0  0  0  0  0  0  0  0  0  0  0
   -0.6200   -0.0635    1.8004 H   0  0  0  0  0  0  0  0  0  0  0  0
   -0.6465    0.8198   -0.1628 C   0  0  0  0  0  0  0  0  0  0  0  0
   -0.8849    0.4881   -1.1834 H   0  0  0  0  0  0  0  0  0  0  0  0
    0.8205    1.3039   -0.1200 C   0  0  0  0  0  0  0  0  0  0  0  0
    0.8789    2.1293    0.5991 H   0  0  0  0  0  0  0  0  0  0  0  0
    1.7765    0.1794    0.3369 C   0  0  0  0  0  0  0  0  0  0  0  0
    2.7439    0.3352   -0.1612 H   0  0  0  0  0  0  0  0  0  0  0  0
    1.2222   -1.1648   -0.1484 C   0  0  0  0  0  0  0  0  0  0  0  0
    1.8915   -1.9794    0.1700 H   0  0  0  0  0  0  0  0  0  0  0  0
   -0.0161   -1.4757    0.4222 O   0  0  0  0  0  0  0  0  0  0  0  0
    1.1543   -1.0933   -1.5436 O   0  0  0  0  0  0  0  0  0  0  0  0
    1.9295    0.1036    1.7293 O   0  0  0  0  0  0  0  0  0  0  0  0
    1.2254    1.8419   -1.3545 O   0  0  0  0  0  0  0  0  0  0  0  0
   -1.5311    1.8350    0.2473 O   0  0  0  0  0  0  0  0  0  0  0  0
   -2.6595   -1.1456   -0.6078 O   0  0  0  0  0  0  0  0  0  0  0  0
   -2.9323   -0.0795    1.1479 H   0  0  0  0  0  0  0  0  0  0  0  0
   -2.3633   -1.7724    1.3425 H   0  0  0  0  0  0  0  0  0  0  0  0
    0.7787   -1.9165   -1.8918 H   0  0  0  0  0  0  0  0  0  0  0  0
    2.4327    0.8694    2.0438 H   0  0  0  0  0  0  0  0  0  0  0  0
    1.2551    1.1247   -2.0073 H   0  0  0  0  0  0  0  0  0  0  0  0
   -1.4941    2.5596   -0.3938 H   0  0  0  0  0  0  0  0  0  0  0  0
   -3.5700   -1.4711   -0.6257 H   0  0  0  0  0  0  0  0  0  0  0  0
  1  2  1  0  0  0  0
  2  3  1  0  0  0  0
  2  4  1  0  0  0  0
  4  5  1  0  0  0  0
  4  6  1  0  0  0  0
  6  7  1  0  0  0  0
  6  8  1  0  0  0  0
  8  9  1  0  0  0  0
  8 10  1  0  0  0  0
 10 11  1  0  0  0  0
  2 12  1  0  0  0  0
 10 12  1  0  0  0  0
 10 13  1  0  0  0  0
  8 14  1  0  0  0  0
  6 15  1  0  0  0  0
  4 16  1  0  0  0  0
  1 17  1  0  0  0  0
  1 18  1  0  0  0  0
  1 19  1  0  0  0  0
 13 20  1  0  0  0  0
 14 21  1  0  0  0  0
 15 22  1  0  0  0  0
 16 23  1  0  0  0  0
 17 24  1  0  0  0  0
M  END
