 xtb: 6.7.1 (edcfbbe)
          04062518003D

 24 24  0     0  0            999 V2000
   -2.1948   -0.9605   -0.1182 C   0  0  0  0  0  0  0  0  0  0  0  0
   -1.1069   -0.3728    0.8084 C   0  0  0  0  0  0  0  0  0  0  0  0
   -1.5474   -0.3662    1.8137 H   0  0  0  0  0  0  0  0  0  0  0  0
   -0.7417    1.0902    0.4819 C   0  0  0  0  0  0  0  0  0  0  0  0
   -1.6164    1.5595    0.0165 H   0  0  0  0  0  0  0  0  0  0  0  0
    0.4740    1.2521   -0.4532 C   0  0  0  0  0  0  0  0  0  0  0  0
    0.7920    2.3047   -0.3628 H   0  0  0  0  0  0  0  0  0  0  0  0
    1.6226    0.3387    0.0200 C   0  0  0  0  0  0  0  0  0  0  0  0
    2.4231    0.3628   -0.7289 H   0  0  0  0  0  0  0  0  0  0  0  0
    1.1062   -1.1095    0.0832 C   0  0  0  0  0  0  0  0  0  0  0  0
    1.8661   -1.7538    0.5441 H   0  0  0  0  0  0  0  0  0  0  0  0
    0.0163   -1.2431    0.9584 O   0  0  0  0  0  0  0  0  0  0  0  0
    0.8509   -1.6079   -1.1928 O   0  0  0  0  0  0  0  0  0  0  0  0
    2.0861    0.7052    1.2960 O   0  0  0  0  0  0  0  0  0  0  0  0
    0.2263    0.9428   -1.8037 O   0  0  0  0  0  0  0  0  0  0  0  0
   -0.5132    1.8233    1.6631 O   0  0  0  0  0  0  0  0  0  0  0  0
   -1.9222   -0.8910   -1.4930 O   0  0  0  0  0  0  0  0  0  0  0  0
   -3.1117   -0.3872    0.0372 H   0  0  0  0  0  0  0  0  0  0  0  0
   -2.3667   -1.9964    0.1954 H   0  0  0  0  0  0  0  0  0  0  0  0
    0.6095   -0.8551   -1.7753 H   0  0  0  0  0  0  0  0  0  0  0  0
    2.7569    1.3987    1.2184 H   0  0  0  0  0  0  0  0  0  0  0  0
   -0.6439    1.2705   -2.0752 H   0  0  0  0  0  0  0  0  0  0  0  0
    0.2734    1.4561    2.1020 H   0  0  0  0  0  0  0  0  0  0  0  0
   -1.2302   -1.5388   -1.7042 H   0  0  0  0  0  0  0  0  0  0  0  0
  1  2  1  0  0  0  0
  2  3  1  0  0  0  0
  2  4  1  0  0  0  0
  4  5  1  0  0  0  0
  4  6  1  0  0  0  0
  6  7  1  0  0  0  0
  6  8  1  0  0  0  0
  8  9  1  0  0  0  0
  8 10  1  0  0  0  0
 10 11  1  0  0  0  0
  2 12  1  0  0  0  0
 10 12  1  0  0  0  0
 10 13  1  0  0  0  0
  8 14  1  0  0  0  0
  6 15  1  0  0  0  0
  4 16  1  0  0  0  0
  1 17  1  0  0  0  0
  1 18  1  0  0  0  0
  1 19  1  0  0  0  0
 13 20  1  0  0  0  0
 14 21  1  0  0  0  0
 15 22  1  0  0  0  0
 16 23  1  0  0  0  0
 17 24  1  0  0  0  0
M  END
