 xtb: 6.7.1 (edcfbbe)
          04062518003D

 24 24  0     0  0            999 V2000
   -1.9104   -1.1560   -0.4102 C   0  0  0  0  0  0  0  0  0  0  0  0
   -1.0538   -0.5286    0.7201 C   0  0  0  0  0  0  0  0  0  0  0  0
   -1.5974   -0.6136    1.6674 H   0  0  0  0  0  0  0  0  0  0  0  0
   -0.7591    0.9731    0.5284 C   0  0  0  0  0  0  0  0  0  0  0  0
   -1.6656    1.4566    0.1488 H   0  0  0  0  0  0  0  0  0  0  0  0
    0.4006    1.2038   -0.4560 C   0  0  0  0  0  0  0  0  0  0  0  0
    0.6456    2.2785   -0.4319 H   0  0  0  0  0  0  0  0  0  0  0  0
    1.6332    0.3910   -0.0045 C   0  0  0  0  0  0  0  0  0  0  0  0
    2.4011    0.4536   -0.7867 H   0  0  0  0  0  0  0  0  0  0  0  0
    1.2330   -1.0911    0.1097 C   0  0  0  0  0  0  0  0  0  0  0  0
    2.0326   -1.6490    0.6135 H   0  0  0  0  0  0  0  0  0  0  0  0
    0.1297   -1.2857    0.9647 O   0  0  0  0  0  0  0  0  0  0  0  0
    1.0639   -1.6562   -1.1511 O   0  0  0  0  0  0  0  0  0  0  0  0
    2.1320    0.8137    1.2403 O   0  0  0  0  0  0  0  0  0  0  0  0
    0.0940    0.8245   -1.7793 O   0  0  0  0  0  0  0  0  0  0  0  0
   -0.4952    1.5952    1.7607 O   0  0  0  0  0  0  0  0  0  0  0  0
   -2.4261   -0.1617   -1.2780 O   0  0  0  0  0  0  0  0  0  0  0  0
   -2.7313   -1.7138    0.0496 H   0  0  0  0  0  0  0  0  0  0  0  0
   -1.2825   -1.8630   -0.9634 H   0  0  0  0  0  0  0  0  0  0  0  0
    0.6959   -0.9712   -1.7497 H   0  0  0  0  0  0  0  0  0  0  0  0
    2.6361    1.6333    1.1308 H   0  0  0  0  0  0  0  0  0  0  0  0
   -0.8767    0.7562   -1.8740 H   0  0  0  0  0  0  0  0  0  0  0  0
    0.3283    1.2230    2.1232 H   0  0  0  0  0  0  0  0  0  0  0  0
   -3.0580   -0.5760   -1.8828 H   0  0  0  0  0  0  0  0  0  0  0  0
  1  2  1  0  0  0  0
  2  3  1  0  0  0  0
  2  4  1  0  0  0  0
  4  5  1  0  0  0  0
  4  6  1  0  0  0  0
  6  7  1  0  0  0  0
  6  8  1  0  0  0  0
  8  9  1  0  0  0  0
  8 10  1  0  0  0  0
 10 11  1  0  0  0  0
  2 12  1  0  0  0  0
 10 12  1  0  0  0  0
 10 13  1  0  0  0  0
  8 14  1  0  0  0  0
  6 15  1  0  0  0  0
  4 16  1  0  0  0  0
  1 17  1  0  0  0  0
  1 18  1  0  0  0  0
  1 19  1  0  0  0  0
 13 20  1  0  0  0  0
 14 21  1  0  0  0  0
 15 22  1  0  0  0  0
 16 23  1  0  0  0  0
 17 24  1  0  0  0  0
M  END
