 xtb: 6.7.1 (edcfbbe)
          04032521383D

 12 12  0     0  0            999 V2000
   -0.6919   -1.2088   -0.0000 C   0  0  0  0  0  0  0  0  0  0  0  0
    0.6919   -1.2089    0.0000 C   0  0  0  0  0  0  0  0  0  0  0  0
    1.3681   -0.0000    0.0001 C   0  0  0  0  0  0  0  0  0  0  0  0
    0.6919    1.2088    0.0000 C   0  0  0  0  0  0  0  0  0  0  0  0
   -0.6918    1.2089   -0.0000 C   0  0  0  0  0  0  0  0  0  0  0  0
   -1.3681    0.0000   -0.0001 C   0  0  0  0  0  0  0  0  0  0  0  0
   -3.2820    0.0000   -0.0000 Br  0  0  0  0  0  0  0  0  0  0  0  0
    3.2820   -0.0001    0.0000 Br  0  0  0  0  0  0  0  0  0  0  0  0
   -1.2346   -2.1404   -0.0000 H   0  0  0  0  0  0  0  0  0  0  0  0
    1.2346   -2.1405    0.0000 H   0  0  0  0  0  0  0  0  0  0  0  0
    1.2347    2.1404    0.0000 H   0  0  0  0  0  0  0  0  0  0  0  0
   -1.2346    2.1405   -0.0000 H   0  0  0  0  0  0  0  0  0  0  0  0
  1  2  4  0  0  0  0
  2  3  4  0  0  0  0
  3  4  4  0  0  0  0
  4  5  4  0  0  0  0
  1  6  4  0  0  0  0
  5  6  4  0  0  0  0
  6  7  1  0  0  0  0
  3  8  1  0  0  0  0
  1  9  1  0  0  0  0
  2 10  1  0  0  0  0
  4 11  1  0  0  0  0
  5 12  1  0  0  0  0
M  END
