 xtb: 6.7.1 (edcfbbe)
          04032521543D

 16 16  0     0  0            999 V2000
    0.7329   -1.1978    0.2318 C   0  0  0  0  0  0  0  0  0  0  0  0
   -0.7331   -1.1977   -0.2316 C   0  0  0  0  0  0  0  0  0  0  0  0
   -1.4477    0.0002    0.1925 N   0  0  0  0  0  0  0  0  0  0  0  0
   -0.7329    1.1980   -0.2316 C   0  0  0  0  0  0  0  0  0  0  0  0
    0.7330    1.1979    0.2317 C   0  0  0  0  0  0  0  0  0  0  0  0
    1.4477   -0.0000   -0.1923 N   0  0  0  0  0  0  0  0  0  0  0  0
    1.2578   -2.0714   -0.1579 H   0  0  0  0  0  0  0  0  0  0  0  0
    0.7711   -1.2291    1.3261 H   0  0  0  0  0  0  0  0  0  0  0  0
   -0.7713   -1.2291   -1.3259 H   0  0  0  0  0  0  0  0  0  0  0  0
   -1.2581   -2.0712    0.1582 H   0  0  0  0  0  0  0  0  0  0  0  0
   -1.5122    0.0002    1.2073 H   0  0  0  0  0  0  0  0  0  0  0  0
   -0.7712    1.2293   -1.3260 H   0  0  0  0  0  0  0  0  0  0  0  0
   -1.2579    2.0716    0.1581 H   0  0  0  0  0  0  0  0  0  0  0  0
    1.2581    2.0714   -0.1581 H   0  0  0  0  0  0  0  0  0  0  0  0
    0.7713    1.2292    1.3260 H   0  0  0  0  0  0  0  0  0  0  0  0
    1.5121   -0.0001   -1.2071 H   0  0  0  0  0  0  0  0  0  0  0  0
  1  2  1  0  0  0  0
  2  3  1  0  0  0  0
  3  4  1  0  0  0  0
  4  5  1  0  0  0  0
  1  6  1  0  0  0  0
  5  6  1  0  0  0  0
  1  7  1  0  0  0  0
  1  8  1  0  0  0  0
  2  9  1  0  0  0  0
  2 10  1  0  0  0  0
  3 11  1  0  0  0  0
  4 12  1  0  0  0  0
  4 13  1  0  0  0  0
  5 14  1  0  0  0  0
  5 15  1  0  0  0  0
  6 16  1  0  0  0  0
M  END
