 xtb: 6.7.1 (edcfbbe)
          04062518003D

 24 24  0     0  0            999 V2000
   -2.3562   -1.0083    0.3514 C   0  0  0  0  0  0  0  0  0  0  0  0
   -1.0896   -0.2583    0.8104 C   0  0  0  0  0  0  0  0  0  0  0  0
   -1.3152    0.1812    1.7906 H   0  0  0  0  0  0  0  0  0  0  0  0
   -0.6821    0.8763   -0.1479 C   0  0  0  0  0  0  0  0  0  0  0  0
   -0.6878    0.5319   -1.1879 H   0  0  0  0  0  0  0  0  0  0  0  0
    0.7531    1.2862    0.2075 C   0  0  0  0  0  0  0  0  0  0  0  0
    0.8217    1.4553    1.2950 H   0  0  0  0  0  0  0  0  0  0  0  0
    1.7011    0.1263   -0.1382 C   0  0  0  0  0  0  0  0  0  0  0  0
    1.9416    0.1843   -1.2096 H   0  0  0  0  0  0  0  0  0  0  0  0
    0.9881   -1.2313    0.0855 C   0  0  0  0  0  0  0  0  0  0  0  0
    1.7049   -1.9529    0.5136 H   0  0  0  0  0  0  0  0  0  0  0  0
   -0.0158   -1.1692    1.0542 O   0  0  0  0  0  0  0  0  0  0  0  0
    0.5363   -1.6871   -1.1551 O   0  0  0  0  0  0  0  0  0  0  0  0
    2.8523    0.2807    0.6525 O   0  0  0  0  0  0  0  0  0  0  0  0
    1.0810    2.4585   -0.4915 O   0  0  0  0  0  0  0  0  0  0  0  0
   -1.6031    1.9302   -0.0913 O   0  0  0  0  0  0  0  0  0  0  0  0
   -2.2191   -1.6584   -0.8917 O   0  0  0  0  0  0  0  0  0  0  0  0
   -3.1850   -0.2958    0.3369 H   0  0  0  0  0  0  0  0  0  0  0  0
   -2.5635   -1.7950    1.0803 H   0  0  0  0  0  0  0  0  0  0  0  0
   -0.3363   -2.1204   -1.0506 H   0  0  0  0  0  0  0  0  0  0  0  0
    3.5334   -0.3502    0.3802 H   0  0  0  0  0  0  0  0  0  0  0  0
    1.9888    2.7124   -0.2719 H   0  0  0  0  0  0  0  0  0  0  0  0
   -1.4018    2.5101    0.6564 H   0  0  0  0  0  0  0  0  0  0  0  0
   -2.3555   -1.0230   -1.6078 H   0  0  0  0  0  0  0  0  0  0  0  0
  1  2  1  0  0  0  0
  2  3  1  0  0  0  0
  2  4  1  0  0  0  0
  4  5  1  0  0  0  0
  4  6  1  0  0  0  0
  6  7  1  0  0  0  0
  6  8  1  0  0  0  0
  8  9  1  0  0  0  0
  8 10  1  0  0  0  0
 10 11  1  0  0  0  0
  2 12  1  0  0  0  0
 10 12  1  0  0  0  0
 10 13  1  0  0  0  0
  8 14  1  0  0  0  0
  6 15  1  0  0  0  0
  4 16  1  0  0  0  0
  1 17  1  0  0  0  0
  1 18  1  0  0  0  0
  1 19  1  0  0  0  0
 13 20  1  0  0  0  0
 14 21  1  0  0  0  0
 15 22  1  0  0  0  0
 16 23  1  0  0  0  0
 17 24  1  0  0  0  0
M  END
