 xtb: 6.7.1 (edcfbbe)
          04062518003D

 24 24  0     0  0            999 V2000
   -2.4838   -0.4838   -0.2094 C   0  0  0  0  0  0  0  0  0  0  0  0
   -1.0479   -0.2039    0.2425 C   0  0  0  0  0  0  0  0  0  0  0  0
   -0.9734   -0.3794    1.3277 H   0  0  0  0  0  0  0  0  0  0  0  0
   -0.6338    1.2548   -0.0517 C   0  0  0  0  0  0  0  0  0  0  0  0
   -1.2322    1.6374   -0.8859 H   0  0  0  0  0  0  0  0  0  0  0  0
    0.8604    1.3158   -0.4478 C   0  0  0  0  0  0  0  0  0  0  0  0
    1.2318    2.3152   -0.1732 H   0  0  0  0  0  0  0  0  0  0  0  0
    1.6510    0.2855    0.3707 C   0  0  0  0  0  0  0  0  0  0  0  0
    2.6905    0.2939    0.0242 H   0  0  0  0  0  0  0  0  0  0  0  0
    1.1030   -1.1376    0.0995 C   0  0  0  0  0  0  0  0  0  0  0  0
    1.0783   -1.6816    1.0731 H   0  0  0  0  0  0  0  0  0  0  0  0
   -0.1993   -1.1242   -0.4273 O   0  0  0  0  0  0  0  0  0  0  0  0
    1.9396   -1.7845   -0.7899 O   0  0  0  0  0  0  0  0  0  0  0  0
    1.5364    0.6459    1.7247 O   0  0  0  0  0  0  0  0  0  0  0  0
    1.0855    1.0505   -1.8048 O   0  0  0  0  0  0  0  0  0  0  0  0
   -0.9149    2.1013    1.0305 O   0  0  0  0  0  0  0  0  0  0  0  0
   -2.9565   -1.7297    0.2321 O   0  0  0  0  0  0  0  0  0  0  0  0
   -2.5251   -0.4170   -1.3034 H   0  0  0  0  0  0  0  0  0  0  0  0
   -3.1409    0.2695    0.2285 H   0  0  0  0  0  0  0  0  0  0  0  0
    1.4241   -2.4233   -1.3056 H   0  0  0  0  0  0  0  0  0  0  0  0
    2.2505    0.2459    2.2403 H   0  0  0  0  0  0  0  0  0  0  0  0
    0.6870    1.7475   -2.3457 H   0  0  0  0  0  0  0  0  0  0  0  0
   -0.3231    1.8740    1.7658 H   0  0  0  0  0  0  0  0  0  0  0  0
   -2.3901   -2.4215   -0.1388 H   0  0  0  0  0  0  0  0  0  0  0  0
  1  2  1  0  0  0  0
  2  3  1  0  0  0  0
  2  4  1  0  0  0  0
  4  5  1  0  0  0  0
  4  6  1  0  0  0  0
  6  7  1  0  0  0  0
  6  8  1  0  0  0  0
  8  9  1  0  0  0  0
  8 10  1  0  0  0  0
 10 11  1  0  0  0  0
  2 12  1  0  0  0  0
 10 12  1  0  0  0  0
 10 13  1  0  0  0  0
  8 14  1  0  0  0  0
  6 15  1  0  0  0  0
  4 16  1  0  0  0  0
  1 17  1  0  0  0  0
  1 18  1  0  0  0  0
  1 19  1  0  0  0  0
 13 20  1  0  0  0  0
 14 21  1  0  0  0  0
 15 22  1  0  0  0  0
 16 23  1  0  0  0  0
 17 24  1  0  0  0  0
M  END
