 xtb: 6.7.1 (edcfbbe)
          04062518003D

 24 24  0     0  0            999 V2000
   -1.9309   -0.9816   -0.7593 C   0  0  0  0  0  0  0  0  0  0  0  0
   -1.2675   -0.1716    0.3620 C   0  0  0  0  0  0  0  0  0  0  0  0
   -2.0223    0.0395    1.1267 H   0  0  0  0  0  0  0  0  0  0  0  0
   -0.7318    1.1736   -0.1669 C   0  0  0  0  0  0  0  0  0  0  0  0
   -0.7873    1.1956   -1.2676 H   0  0  0  0  0  0  0  0  0  0  0  0
    0.7443    1.3360    0.2091 C   0  0  0  0  0  0  0  0  0  0  0  0
    0.8390    1.4002    1.3038 H   0  0  0  0  0  0  0  0  0  0  0  0
    1.5065    0.1008   -0.2786 C   0  0  0  0  0  0  0  0  0  0  0  0
    1.3414   -0.0142   -1.3596 H   0  0  0  0  0  0  0  0  0  0  0  0
    0.9443   -1.1448    0.4368 C   0  0  0  0  0  0  0  0  0  0  0  0
    1.6174   -1.4040    1.2704 H   0  0  0  0  0  0  0  0  0  0  0  0
   -0.2831   -0.9078    1.0746 O   0  0  0  0  0  0  0  0  0  0  0  0
    0.8841   -2.1828   -0.4938 O   0  0  0  0  0  0  0  0  0  0  0  0
    2.8689    0.3026   -0.0031 O   0  0  0  0  0  0  0  0  0  0  0  0
    1.2161    2.5121   -0.3960 O   0  0  0  0  0  0  0  0  0  0  0  0
   -1.5243    2.2025    0.3649 O   0  0  0  0  0  0  0  0  0  0  0  0
   -2.5538   -2.1132   -0.1975 O   0  0  0  0  0  0  0  0  0  0  0  0
   -1.1709   -1.2801   -1.4927 H   0  0  0  0  0  0  0  0  0  0  0  0
   -2.6678   -0.3275   -1.2410 H   0  0  0  0  0  0  0  0  0  0  0  0
    0.5446   -2.9847   -0.0672 H   0  0  0  0  0  0  0  0  0  0  0  0
    3.3980   -0.3928   -0.4185 H   0  0  0  0  0  0  0  0  0  0  0  0
    2.1797    2.5402   -0.2935 H   0  0  0  0  0  0  0  0  0  0  0  0
   -1.1199    3.0525    0.1308 H   0  0  0  0  0  0  0  0  0  0  0  0
   -3.0394   -2.5851   -0.8890 H   0  0  0  0  0  0  0  0  0  0  0  0
  1  2  1  0  0  0  0
  2  3  1  0  0  0  0
  2  4  1  0  0  0  0
  4  5  1  0  0  0  0
  4  6  1  0  0  0  0
  6  7  1  0  0  0  0
  6  8  1  0  0  0  0
  8  9  1  0  0  0  0
  8 10  1  0  0  0  0
 10 11  1  0  0  0  0
  2 12  1  0  0  0  0
 10 12  1  0  0  0  0
 10 13  1  0  0  0  0
  8 14  1  0  0  0  0
  6 15  1  0  0  0  0
  4 16  1  0  0  0  0
  1 17  1  0  0  0  0
  1 18  1  0  0  0  0
  1 19  1  0  0  0  0
 13 20  1  0  0  0  0
 14 21  1  0  0  0  0
 15 22  1  0  0  0  0
 16 23  1  0  0  0  0
 17 24  1  0  0  0  0
M  END
