12
 xtb: 6.7.1 (edcfbbe)
C           -1.32230968479967       -1.49169044543644        0.00002740065666
C            0.03841128858001       -1.76642793480369       -0.00000646034767
C            0.96629580516842       -0.73033704782504        0.00000735600981
C            0.52699739032395        0.59480272278953        0.00005291700420
C           -0.83314675287446        0.88664448802866        0.00008271636602
C           -1.73688753446257       -0.16616738737669        0.00007085542581
Cl          -3.45281994896528        0.19897467355253        0.00011680295109
Cl           1.66165384472737        1.91862607055919        0.00006875449735
Cl           2.66725353895776       -1.11469373540853       -0.00004115968483
H           -2.04004049740671       -2.30302648413768        0.00002291452955
H            0.38168877264352       -2.79441864108860       -0.00003989336071
H           -1.16973968375854        1.91599494452247        0.00011422582694
