 xtb: 6.7.1 (edcfbbe)
          04042513183D

 12 11  0     0  0            999 V2000
   -1.9391    0.4344   -0.2071 C   0  0  0  0  0  0  0  0  0  0  0  0
   -0.8916   -0.5544    0.2977 C   0  0  0  0  0  0  0  0  0  0  0  0
    0.5466   -0.1545    0.0283 C   0  0  0  0  0  0  0  0  0  0  0  0
    1.3979   -0.9842   -0.2873 O   0  0  0  0  0  0  0  0  0  0  0  0
    0.8455    1.1400    0.1785 N   0  0  0  0  0  0  0  0  0  0  0  0
   -1.9437    1.3504    0.3770 H   0  0  0  0  0  0  0  0  0  0  0  0
   -1.7613    0.6798   -1.2511 H   0  0  0  0  0  0  0  0  0  0  0  0
   -2.9255   -0.0148   -0.1260 H   0  0  0  0  0  0  0  0  0  0  0  0
   -1.0371   -1.5313   -0.1661 H   0  0  0  0  0  0  0  0  0  0  0  0
   -0.9924   -0.6878    1.3775 H   0  0  0  0  0  0  0  0  0  0  0  0
    0.1463    1.8139    0.4356 H   0  0  0  0  0  0  0  0  0  0  0  0
    1.7920    1.4435    0.0176 H   0  0  0  0  0  0  0  0  0  0  0  0
  1  2  1  0  0  0  0
  2  3  1  0  0  0  0
  3  4  2  0  0  0  0
  3  5  4  0  0  0  0
  1  6  1  0  0  0  0
  1  7  1  0  0  0  0
  1  8  1  0  0  0  0
  2  9  1  0  0  0  0
  2 10  1  0  0  0  0
  5 11  1  0  0  0  0
  5 12  1  0  0  0  0
M  END
