 xtb: 6.7.1 (edcfbbe)
          04062518003D

 24 24  0     0  0            999 V2000
   -2.3109   -1.0163   -0.2385 C   0  0  0  0  0  0  0  0  0  0  0  0
   -0.9169   -0.5311    0.1743 C   0  0  0  0  0  0  0  0  0  0  0  0
   -0.8157   -0.6641    1.2626 H   0  0  0  0  0  0  0  0  0  0  0  0
   -0.7111    0.9623   -0.1609 C   0  0  0  0  0  0  0  0  0  0  0  0
   -1.2404    1.1996   -1.0912 H   0  0  0  0  0  0  0  0  0  0  0  0
    0.7937    1.2532   -0.3729 C   0  0  0  0  0  0  0  0  0  0  0  0
    0.9870    2.2817   -0.0339 H   0  0  0  0  0  0  0  0  0  0  0  0
    1.6240    0.2921    0.4872 C   0  0  0  0  0  0  0  0  0  0  0  0
    2.6883    0.4928    0.3113 H   0  0  0  0  0  0  0  0  0  0  0  0
    1.3575   -1.1616    0.0108 C   0  0  0  0  0  0  0  0  0  0  0  0
    1.5080   -1.8533    0.8574 H   0  0  0  0  0  0  0  0  0  0  0  0
    0.0460   -1.3235   -0.4948 O   0  0  0  0  0  0  0  0  0  0  0  0
    2.2494   -1.5488   -0.9683 O   0  0  0  0  0  0  0  0  0  0  0  0
    1.2728    0.5071    1.8312 O   0  0  0  0  0  0  0  0  0  0  0  0
    1.2074    1.0729   -1.7025 O   0  0  0  0  0  0  0  0  0  0  0  0
   -1.2755    1.7939    0.8200 O   0  0  0  0  0  0  0  0  0  0  0  0
   -3.3207   -0.4510    0.5569 O   0  0  0  0  0  0  0  0  0  0  0  0
   -2.3693   -2.0974   -0.0977 H   0  0  0  0  0  0  0  0  0  0  0  0
   -2.4720   -0.7952   -1.3020 H   0  0  0  0  0  0  0  0  0  0  0  0
    2.0851   -1.0102   -1.7620 H   0  0  0  0  0  0  0  0  0  0  0  0
    1.9377    0.1194    2.4172 H   0  0  0  0  0  0  0  0  0  0  0  0
    0.7900    1.7343   -2.2726 H   0  0  0  0  0  0  0  0  0  0  0  0
   -0.7861    1.6764    1.6490 H   0  0  0  0  0  0  0  0  0  0  0  0
   -3.2077    0.5125    0.5789 H   0  0  0  0  0  0  0  0  0  0  0  0
  1  2  1  0  0  0  0
  2  3  1  0  0  0  0
  2  4  1  0  0  0  0
  4  5  1  0  0  0  0
  4  6  1  0  0  0  0
  6  7  1  0  0  0  0
  6  8  1  0  0  0  0
  8  9  1  0  0  0  0
  8 10  1  0  0  0  0
 10 11  1  0  0  0  0
  2 12  1  0  0  0  0
 10 12  1  0  0  0  0
 10 13  1  0  0  0  0
  8 14  1  0  0  0  0
  6 15  1  0  0  0  0
  4 16  1  0  0  0  0
  1 17  1  0  0  0  0
  1 18  1  0  0  0  0
  1 19  1  0  0  0  0
 13 20  1  0  0  0  0
 14 21  1  0  0  0  0
 15 22  1  0  0  0  0
 16 23  1  0  0  0  0
 17 24  1  0  0  0  0
M  END
