 xtb: 6.7.1 (edcfbbe)
          04052509123D

 22 23  0     0  0            999 V2000
   -1.5052   -0.8348    0.7340 C   0  0  0  0  0  0  0  0  0  0  0  0
   -0.8041    0.1749    0.0826 C   0  0  0  0  0  0  0  0  0  0  0  0
   -1.5012    1.1907   -0.5648 C   0  0  0  0  0  0  0  0  0  0  0  0
   -2.8854    1.1818   -0.5772 C   0  0  0  0  0  0  0  0  0  0  0  0
   -3.5964    0.1692    0.0631 C   0  0  0  0  0  0  0  0  0  0  0  0
   -2.8892   -0.8334    0.7230 C   0  0  0  0  0  0  0  0  0  0  0  0
   -3.7520   -2.0891    1.5343 Cl  0  0  0  0  0  0  0  0  0  0  0  0
   -5.3219    0.1580    0.0419 Cl  0  0  0  0  0  0  0  0  0  0  0  0
   -3.7438    2.4349   -1.3954 Cl  0  0  0  0  0  0  0  0  0  0  0  0
    0.6715    0.1924    0.0853 C   0  0  0  0  0  0  0  0  0  0  0  0
    1.3411    1.3433    0.4888 C   0  0  0  0  0  0  0  0  0  0  0  0
    2.7244    1.3915    0.5088 C   0  0  0  0  0  0  0  0  0  0  0  0
    3.4731    0.2842    0.1140 C   0  0  0  0  0  0  0  0  0  0  0  0
    2.8131   -0.8681   -0.3076 C   0  0  0  0  0  0  0  0  0  0  0  0
    1.4203   -0.9150   -0.3206 C   0  0  0  0  0  0  0  0  0  0  0  0
    0.6480   -2.3407   -0.9026 Cl  0  0  0  0  0  0  0  0  0  0  0  0
    3.7293   -2.2332   -0.8177 Cl  0  0  0  0  0  0  0  0  0  0  0  0
    5.1927    0.3332    0.1365 Cl  0  0  0  0  0  0  0  0  0  0  0  0
    3.5303    2.8222    1.0230 Cl  0  0  0  0  0  0  0  0  0  0  0  0
   -0.9832   -1.6130    1.2648 H   0  0  0  0  0  0  0  0  0  0  0  0
   -0.9712    1.9765   -1.0765 H   0  0  0  0  0  0  0  0  0  0  0  0
    0.7754    2.2032    0.8076 H   0  0  0  0  0  0  0  0  0  0  0  0
  1  2  4  0  0  0  0
  2  3  4  0  0  0  0
  3  4  4  0  0  0  0
  4  5  4  0  0  0  0
  1  6  4  0  0  0  0
  5  6  4  0  0  0  0
  6  7  1  0  0  0  0
  5  8  1  0  0  0  0
  4  9  1  0  0  0  0
  2 10  1  0  0  0  0
 10 11  4  0  0  0  0
 11 12  4  0  0  0  0
 12 13  4  0  0  0  0
 13 14  4  0  0  0  0
 10 15  4  0  0  0  0
 14 15  4  0  0  0  0
 15 16  1  0  0  0  0
 14 17  1  0  0  0  0
 13 18  1  0  0  0  0
 12 19  1  0  0  0  0
  1 20  1  0  0  0  0
  3 21  1  0  0  0  0
 11 22  1  0  0  0  0
M  END
