19
 xtb: 6.7.1 (edcfbbe)
C           -1.91911526258868       -2.19535163016202        0.00151739608207
C           -0.92079231006224       -1.07159920518595       -0.00172864717418
C            0.45005184940463       -1.32701679941244       -0.00277835354695
C            1.38478439590022       -0.28254141016698       -0.00148677431118
C            0.93086910078223        1.03394184542443       -0.00005781192441
C           -0.44088540541853        1.29231452726328        0.00054694964039
C           -1.36689568056086        0.25549116376936       -0.00043026042115
O           -0.82849360026172        2.61769939026031        0.00121448314734
C            2.85678656696576       -0.58695278209661        0.00158454427628
H           -2.53851733254882       -2.16635507909166        0.90474844996485
H           -2.59822600973674       -2.12071319423983       -0.85454385659329
H           -1.42063156212671       -3.16675484913762       -0.03921511321087
H            0.80133813398602       -2.35567317712632       -0.00482979771241
H            1.63081829375537        1.86397569571396       -0.00015037666774
H           -2.43115681735492        0.47909986712686       -0.00069108082985
H           -1.79510650106521        2.66045825806106        0.00172553844285
H            3.12871520117748       -1.21333127544545       -0.85465676078629
H            3.45265941135756        0.32794605021617       -0.03883942435294
H            3.13933143941943       -1.13946502420262        0.90442660264446
