 xtb: 6.7.1 (edcfbbe)
          04032521373D

  6  5  0     0  0            999 V2000
    0.7309    0.0000   -0.0892 N   0  0  0  0  0  0  0  0  0  0  0  0
   -0.7309    0.0000    0.0892 N   0  0  0  0  0  0  0  0  0  0  0  0
    1.0633    0.8132    0.4265 H   0  0  0  0  0  0  0  0  0  0  0  0
    1.0633   -0.8131    0.4266 H   0  0  0  0  0  0  0  0  0  0  0  0
   -1.0633   -0.8132   -0.4265 H   0  0  0  0  0  0  0  0  0  0  0  0
   -1.0633    0.8131   -0.4266 H   0  0  0  0  0  0  0  0  0  0  0  0
  1  2  1  0  0  0  0
  1  3  1  0  0  0  0
  1  4  1  0  0  0  0
  2  5  1  0  0  0  0
  2  6  1  0  0  0  0
M  END
