13
CONF1
C 0.0000035509 -2.5145818380 0.0000784821
C 1.2139628875 -1.8349291500 0.0000692620
C 1.2055281901 -0.4505426928 0.0000043358
C -0.0001063374 0.2733060339 -0.0000975946
C -1.2056609593 -0.4506455786 0.0000145413
C -1.2140025298 -1.8350194560 0.0000765470
Cl -2.7118533946 0.4253306246 -0.0001094547
C -0.0004306289 1.6880265642 -0.0011068307
N 0.0007858275 2.8478434302 0.0011036350
Cl 2.7117118063 0.4254578598 -0.0001296664
H 0.0000363591 -3.5989977085 0.0000620541
H 2.1522526868 -2.3761304736 0.0000274843
H -2.1522631924 -2.3762674607 0.0000404535
