 xtb: 6.7.1 (edcfbbe)
          04042519363D

 14 13  0     0  0            999 V2000
    2.4834   -0.4788    0.2034 C   0  0  0  0  0  0  0  0  0  0  0  0
    1.2462    0.2308   -0.3396 C   0  0  0  0  0  0  0  0  0  0  0  0
   -0.0238   -0.1960    0.3858 C   0  0  0  0  0  0  0  0  0  0  0  0
    0.0665   -0.0065    1.4578 H   0  0  0  0  0  0  0  0  0  0  0  0
   -0.4310   -1.6326    0.1262 C   0  0  0  0  0  0  0  0  0  0  0  0
   -1.3759    0.8908   -0.1568 Cl  0  0  0  0  0  0  0  0  0  0  0  0
    2.4433   -1.5449    0.0017 H   0  0  0  0  0  0  0  0  0  0  0  0
    2.5686   -0.3290    1.2767 H   0  0  0  0  0  0  0  0  0  0  0  0
    3.3729   -0.0754   -0.2721 H   0  0  0  0  0  0  0  0  0  0  0  0
    1.1369    0.0238   -1.4056 H   0  0  0  0  0  0  0  0  0  0  0  0
    1.3708    1.3088   -0.2196 H   0  0  0  0  0  0  0  0  0  0  0  0
    0.3181   -2.3005    0.5417 H   0  0  0  0  0  0  0  0  0  0  0  0
   -1.3861   -1.8481    0.5978 H   0  0  0  0  0  0  0  0  0  0  0  0
   -0.5193   -1.8160   -0.9417 H   0  0  0  0  0  0  0  0  0  0  0  0
  1  2  1  0  0  0  0
  2  3  1  0  0  0  0
  3  4  1  0  0  0  0
  3  5  1  0  0  0  0
  3  6  1  0  0  0  0
  1  7  1  0  0  0  0
  1  8  1  0  0  0  0
  1  9  1  0  0  0  0
  2 10  1  0  0  0  0
  2 11  1  0  0  0  0
  5 12  1  0  0  0  0
  5 13  1  0  0  0  0
  5 14  1  0  0  0  0
M  END
