 xtb: 6.7.1 (edcfbbe)
          04032521083D

 17 18  0     0  0            999 V2000
    2.4095    0.6892   -0.0001 C   0  0  0  0  0  0  0  0  0  0  0  0
    2.3842   -0.7154    0.0001 C   0  0  0  0  0  0  0  0  0  0  0  0
    1.1961   -1.3919    0.0001 C   0  0  0  0  0  0  0  0  0  0  0  0
   -0.0242   -0.6840   -0.0000 C   0  0  0  0  0  0  0  0  0  0  0  0
    0.0009    0.7385    0.0001 C   0  0  0  0  0  0  0  0  0  0  0  0
    1.2438    1.4031   -0.0001 C   0  0  0  0  0  0  0  0  0  0  0  0
   -1.2375    1.4137    0.0001 C   0  0  0  0  0  0  0  0  0  0  0  0
   -2.3954    0.6849   -0.0000 C   0  0  0  0  0  0  0  0  0  0  0  0
   -2.3057   -0.7189   -0.0001 C   0  0  0  0  0  0  0  0  0  0  0  0
   -1.1818   -1.3816   -0.0000 N   0  0  0  0  0  0  0  0  0  0  0  0
    3.3601    1.2004    0.0002 H   0  0  0  0  0  0  0  0  0  0  0  0
    3.3166   -1.2592   -0.0004 H   0  0  0  0  0  0  0  0  0  0  0  0
    1.1564   -2.4693    0.0000 H   0  0  0  0  0  0  0  0  0  0  0  0
    1.2539    2.4834    0.0001 H   0  0  0  0  0  0  0  0  0  0  0  0
   -1.2518    2.4944    0.0001 H   0  0  0  0  0  0  0  0  0  0  0  0
   -3.3631    1.1606   -0.0001 H   0  0  0  0  0  0  0  0  0  0  0  0
   -3.2048   -1.3219    0.0000 H   0  0  0  0  0  0  0  0  0  0  0  0
  1  2  4  0  0  0  0
  2  3  2  0  0  0  0
  3  4  4  0  0  0  0
  4  5  4  0  0  0  0
  1  6  2  0  0  0  0
  5  6  4  0  0  0  0
  5  7  4  0  0  0  0
  7  8  2  0  0  0  0
  8  9  4  0  0  0  0
  4 10  4  0  0  0  0
  9 10  2  0  0  0  0
  1 11  1  0  0  0  0
  2 12  1  0  0  0  0
  3 13  1  0  0  0  0
  6 14  1  0  0  0  0
  7 15  1  0  0  0  0
  8 16  1  0  0  0  0
  9 17  1  0  0  0  0
M  END
