 xtb: 6.7.1 (edcfbbe)
          04062518003D

 24 24  0     0  0            999 V2000
   -1.9574   -0.6115   -0.8007 C   0  0  0  0  0  0  0  0  0  0  0  0
   -1.1843   -0.1334    0.4370 C   0  0  0  0  0  0  0  0  0  0  0  0
   -1.8955   -0.1176    1.2716 H   0  0  0  0  0  0  0  0  0  0  0  0
   -0.6136    1.2867    0.2706 C   0  0  0  0  0  0  0  0  0  0  0  0
   -1.3406    1.8987   -0.2731 H   0  0  0  0  0  0  0  0  0  0  0  0
    0.7198    1.3029   -0.5144 C   0  0  0  0  0  0  0  0  0  0  0  0
    1.1285    2.3179   -0.4175 H   0  0  0  0  0  0  0  0  0  0  0  0
    1.6988    0.2946    0.1107 C   0  0  0  0  0  0  0  0  0  0  0  0
    2.5647    0.1792   -0.5556 H   0  0  0  0  0  0  0  0  0  0  0  0
    1.0301   -1.0880    0.2153 C   0  0  0  0  0  0  0  0  0  0  0  0
    1.6571   -1.7190    0.8632 H   0  0  0  0  0  0  0  0  0  0  0  0
   -0.1995   -1.0667    0.8800 O   0  0  0  0  0  0  0  0  0  0  0  0
    0.9486   -1.6146   -1.0788 O   0  0  0  0  0  0  0  0  0  0  0  0
    2.0950    0.6652    1.4082 O   0  0  0  0  0  0  0  0  0  0  0  0
    0.5526    1.0781   -1.8910 O   0  0  0  0  0  0  0  0  0  0  0  0
   -0.4496    1.9120    1.5203 O   0  0  0  0  0  0  0  0  0  0  0  0
   -2.6656   -1.7822   -0.4536 O   0  0  0  0  0  0  0  0  0  0  0  0
   -1.2750   -0.8061   -1.6333 H   0  0  0  0  0  0  0  0  0  0  0  0
   -2.6493    0.1896   -1.0883 H   0  0  0  0  0  0  0  0  0  0  0  0
    0.6402   -2.5328   -1.0396 H   0  0  0  0  0  0  0  0  0  0  0  0
    2.7211    1.4026    1.3611 H   0  0  0  0  0  0  0  0  0  0  0  0
    0.6260    0.1256   -2.0668 H   0  0  0  0  0  0  0  0  0  0  0  0
    0.2212    1.4190    2.0242 H   0  0  0  0  0  0  0  0  0  0  0  0
   -3.2105   -2.0585   -1.2039 H   0  0  0  0  0  0  0  0  0  0  0  0
  1  2  1  0  0  0  0
  2  3  1  0  0  0  0
  2  4  1  0  0  0  0
  4  5  1  0  0  0  0
  4  6  1  0  0  0  0
  6  7  1  0  0  0  0
  6  8  1  0  0  0  0
  8  9  1  0  0  0  0
  8 10  1  0  0  0  0
 10 11  1  0  0  0  0
  2 12  1  0  0  0  0
 10 12  1  0  0  0  0
 10 13  1  0  0  0  0
  8 14  1  0  0  0  0
  6 15  1  0  0  0  0
  4 16  1  0  0  0  0
  1 17  1  0  0  0  0
  1 18  1  0  0  0  0
  1 19  1  0  0  0  0
 13 20  1  0  0  0  0
 14 21  1  0  0  0  0
 15 22  1  0  0  0  0
 16 23  1  0  0  0  0
 17 24  1  0  0  0  0
M  END
