 xtb: 6.7.1 (edcfbbe)
          04062518003D

 24 24  0     0  0            999 V2000
   -2.0873   -1.3631   -0.1248 C   0  0  0  0  0  0  0  0  0  0  0  0
   -1.0212   -0.4997    0.5690 C   0  0  0  0  0  0  0  0  0  0  0  0
   -1.4561   -0.1118    1.4989 H   0  0  0  0  0  0  0  0  0  0  0  0
   -0.6155    0.6923   -0.3078 C   0  0  0  0  0  0  0  0  0  0  0  0
   -0.4810    0.3583   -1.3502 H   0  0  0  0  0  0  0  0  0  0  0  0
    0.7256    1.2377    0.2098 C   0  0  0  0  0  0  0  0  0  0  0  0
    0.6392    1.4063    1.2903 H   0  0  0  0  0  0  0  0  0  0  0  0
    1.8099    0.1876   -0.0653 C   0  0  0  0  0  0  0  0  0  0  0  0
    2.1382    0.2651   -1.1082 H   0  0  0  0  0  0  0  0  0  0  0  0
    1.2186   -1.2380    0.1052 C   0  0  0  0  0  0  0  0  0  0  0  0
    1.9670   -1.8605    0.6154 H   0  0  0  0  0  0  0  0  0  0  0  0
    0.1089   -1.2705    0.9698 O   0  0  0  0  0  0  0  0  0  0  0  0
    0.9216   -1.7334   -1.1622 O   0  0  0  0  0  0  0  0  0  0  0  0
    2.9671    0.3759    0.7005 O   0  0  0  0  0  0  0  0  0  0  0  0
    1.0025    2.5004   -0.3381 O   0  0  0  0  0  0  0  0  0  0  0  0
   -1.6299    1.6637   -0.2539 O   0  0  0  0  0  0  0  0  0  0  0  0
   -3.3446   -0.7355   -0.1267 O   0  0  0  0  0  0  0  0  0  0  0  0
   -2.2085   -2.2969    0.4292 H   0  0  0  0  0  0  0  0  0  0  0  0
   -1.7667   -1.5917   -1.1508 H   0  0  0  0  0  0  0  0  0  0  0  0
    0.7690   -2.6898   -1.1252 H   0  0  0  0  0  0  0  0  0  0  0  0
    2.7471    0.3955    1.6433 H   0  0  0  0  0  0  0  0  0  0  0  0
    1.3381    2.4079   -1.2417 H   0  0  0  0  0  0  0  0  0  0  0  0
   -1.2170    2.5391   -0.3473 H   0  0  0  0  0  0  0  0  0  0  0  0
   -3.2338    0.1849   -0.4134 H   0  0  0  0  0  0  0  0  0  0  0  0
  1  2  1  0  0  0  0
  2  3  1  0  0  0  0
  2  4  1  0  0  0  0
  4  5  1  0  0  0  0
  4  6  1  0  0  0  0
  6  7  1  0  0  0  0
  6  8  1  0  0  0  0
  8  9  1  0  0  0  0
  8 10  1  0  0  0  0
 10 11  1  0  0  0  0
  2 12  1  0  0  0  0
 10 12  1  0  0  0  0
 10 13  1  0  0  0  0
  8 14  1  0  0  0  0
  6 15  1  0  0  0  0
  4 16  1  0  0  0  0
  1 17  1  0  0  0  0
  1 18  1  0  0  0  0
  1 19  1  0  0  0  0
 13 20  1  0  0  0  0
 14 21  1  0  0  0  0
 15 22  1  0  0  0  0
 16 23  1  0  0  0  0
 17 24  1  0  0  0  0
M  END
