 xtb: 6.7.1 (edcfbbe)
          04052509143D

 20 20  0     0  0            999 V2000
   -2.3430   -1.1069    0.5080 C   0  0  0  0  0  0  0  0  0  0  0  0
   -1.6086   -0.0237   -0.1047 N   0  0  0  0  0  0  0  0  0  0  0  0
   -2.3310    1.1893   -0.4123 C   0  0  0  0  0  0  0  0  0  0  0  0
   -0.2389    0.0010   -0.0258 C   0  0  0  0  0  0  0  0  0  0  0  0
    0.4878   -1.1024    0.4489 C   0  0  0  0  0  0  0  0  0  0  0  0
    1.8673   -1.0863    0.4867 C   0  0  0  0  0  0  0  0  0  0  0  0
    2.5797    0.0223    0.0619 C   0  0  0  0  0  0  0  0  0  0  0  0
    1.8783    1.1217   -0.4032 C   0  0  0  0  0  0  0  0  0  0  0  0
    0.4989    1.1189   -0.4465 C   0  0  0  0  0  0  0  0  0  0  0  0
   -3.4068   -0.9516    0.3512 H   0  0  0  0  0  0  0  0  0  0  0  0
   -2.1556   -1.1721    1.5857 H   0  0  0  0  0  0  0  0  0  0  0  0
   -2.0702   -2.0578    0.0466 H   0  0  0  0  0  0  0  0  0  0  0  0
   -2.1333    1.9812    0.3188 H   0  0  0  0  0  0  0  0  0  0  0  0
   -3.3971    0.9801   -0.4148 H   0  0  0  0  0  0  0  0  0  0  0  0
   -2.0569    1.5521   -1.4046 H   0  0  0  0  0  0  0  0  0  0  0  0
   -0.0226   -1.9859    0.7945 H   0  0  0  0  0  0  0  0  0  0  0  0
    2.3938   -1.9543    0.8584 H   0  0  0  0  0  0  0  0  0  0  0  0
    3.6586    0.0306    0.0957 H   0  0  0  0  0  0  0  0  0  0  0  0
    2.4135    2.0003   -0.7355 H   0  0  0  0  0  0  0  0  0  0  0  0
   -0.0028    1.9992   -0.8123 H   0  0  0  0  0  0  0  0  0  0  0  0
  1  2  1  0  0  0  0
  2  3  1  0  0  0  0
  2  4  1  0  0  0  0
  4  5  4  0  0  0  0
  5  6  4  0  0  0  0
  6  7  4  0  0  0  0
  7  8  4  0  0  0  0
  4  9  4  0  0  0  0
  8  9  4  0  0  0  0
  1 10  1  0  0  0  0
  1 11  1  0  0  0  0
  1 12  1  0  0  0  0
  3 13  1  0  0  0  0
  3 14  1  0  0  0  0
  3 15  1  0  0  0  0
  5 16  1  0  0  0  0
  6 17  1  0  0  0  0
  7 18  1  0  0  0  0
  8 19  1  0  0  0  0
  9 20  1  0  0  0  0
M  END
