 xtb: 6.7.1 (edcfbbe)
          04052518533D

 23 23  0     0  0            999 V2000
   -2.5357    1.0548   -0.3516 C   0  0  0  0  0  0  0  0  0  0  0  0
   -1.7782   -0.1737    0.0510 C   0  0  0  0  0  0  0  0  0  0  0  0
   -2.3307   -1.2544    0.1552 O   0  0  0  0  0  0  0  0  0  0  0  0
   -0.2959   -0.0360    0.3482 C   0  0  0  0  0  0  0  0  0  0  0  0
    0.3428    1.3003   -0.0238 C   0  0  0  0  0  0  0  0  0  0  0  0
    1.8151    1.3090    0.3865 C   0  0  0  0  0  0  0  0  0  0  0  0
    2.5724    0.1664   -0.2828 C   0  0  0  0  0  0  0  0  0  0  0  0
    1.9362   -1.1727    0.0775 C   0  0  0  0  0  0  0  0  0  0  0  0
    0.4662   -1.1872   -0.3258 C   0  0  0  0  0  0  0  0  0  0  0  0
   -3.5782    0.8011   -0.5231 H   0  0  0  0  0  0  0  0  0  0  0  0
   -2.4649    1.8034    0.4331 H   0  0  0  0  0  0  0  0  0  0  0  0
   -2.1042    1.4731   -1.2567 H   0  0  0  0  0  0  0  0  0  0  0  0
   -0.2084   -0.1764    1.4342 H   0  0  0  0  0  0  0  0  0  0  0  0
    0.2746    1.4517   -1.1026 H   0  0  0  0  0  0  0  0  0  0  0  0
   -0.1700    2.1234    0.4738 H   0  0  0  0  0  0  0  0  0  0  0  0
    2.2651    2.2641    0.1102 H   0  0  0  0  0  0  0  0  0  0  0  0
    1.8902    1.2049    1.4713 H   0  0  0  0  0  0  0  0  0  0  0  0
    2.5463    0.2989   -1.3666 H   0  0  0  0  0  0  0  0  0  0  0  0
    3.6175    0.1780    0.0313 H   0  0  0  0  0  0  0  0  0  0  0  0
    2.4612   -1.9852   -0.4278 H   0  0  0  0  0  0  0  0  0  0  0  0
    2.0194   -1.3380    1.1540 H   0  0  0  0  0  0  0  0  0  0  0  0
    0.3830   -1.0789   -1.4101 H   0  0  0  0  0  0  0  0  0  0  0  0
    0.0008   -2.1352   -0.0493 H   0  0  0  0  0  0  0  0  0  0  0  0
  1  2  1  0  0  0  0
  2  3  2  0  0  0  0
  2  4  1  0  0  0  0
  4  5  1  0  0  0  0
  5  6  1  0  0  0  0
  6  7  1  0  0  0  0
  7  8  1  0  0  0  0
  4  9  1  0  0  0  0
  8  9  1  0  0  0  0
  1 10  1  0  0  0  0
  1 11  1  0  0  0  0
  1 12  1  0  0  0  0
  4 13  1  0  0  0  0
  5 14  1  0  0  0  0
  5 15  1  0  0  0  0
  6 16  1  0  0  0  0
  6 17  1  0  0  0  0
  7 18  1  0  0  0  0
  7 19  1  0  0  0  0
  8 20  1  0  0  0  0
  8 21  1  0  0  0  0
  9 22  1  0  0  0  0
  9 23  1  0  0  0  0
M  END
