26
 xtb: 6.7.1 (edcfbbe)
C           -2.45367590195479        1.16212460519892        0.06776192782805
C           -1.43481509166312        0.04915279367266       -0.18694408076689
C           -2.08741414077604       -1.31662034328494        0.04133684347267
C           -0.17797025748720        0.23978372465263        0.69281810622036
C            1.19138652828414        0.01951020973961        0.01152912582904
C            1.42920200727023        1.09874213957449       -1.05245184205401
C            2.28134026696386        0.13923370047866        1.08410764605519
C            1.28407124302257       -1.36562618707447       -0.63736428964499
H           -3.35276030001020        1.02491827026063       -0.54374839667570
H           -2.76210231327573        1.16958379803077        1.12063235399156
H           -2.03213879526805        2.14629452382327       -0.16480014431131
H           -1.13865111163639        0.10834655464920       -1.24217996548583
H           -2.93317788679713       -1.46801699000310       -0.63913117440426
H           -1.38084885170149       -2.13794419002239       -0.11153437752756
H           -2.46720199173200       -1.38926080420747        1.06798069420472
H           -0.17122312962955        1.26093164836163        1.09755697239935
H           -0.24804073919506       -0.43180212473976        1.56037167097748
H            2.41077080635589        0.96692640706779       -1.52202819786584
H            1.39906268127858        2.09903677722751       -0.60495304777356
H            0.67511087631786        1.05922545735687       -1.84544348828821
H            3.27792087094874        0.03094129169054        0.64055603208624
H            2.16603845103907       -0.63632983679837        1.85009752444401
H            2.23695142156199        1.11560496327189        1.58068245716070
H            1.12605043139002       -2.15992736774484        0.10105119832314
H            2.27669342286417       -1.50968969111731       -1.08002685764676
H            0.54503440661389       -1.48925285455593       -1.43619373856364
