 xtb: 6.7.1 (edcfbbe)
          04032521413D

 11 10  0     0  0            999 V2000
    0.4129    1.8935    0.1855 C   0  0  0  0  0  0  0  0  0  0  0  0
    0.5631    0.5086    0.7827 C   0  0  0  0  0  0  0  0  0  0  0  0
    1.1075    0.5484    1.7288 H   0  0  0  0  0  0  0  0  0  0  0  0
   -0.7570   -0.2005    1.0203 C   0  0  0  0  0  0  0  0  0  0  0  0
   -1.6806   -0.4175   -0.5050 Cl  0  0  0  0  0  0  0  0  0  0  0  0
    1.5928   -0.5122   -0.3069 Cl  0  0  0  0  0  0  0  0  0  0  0  0
   -0.1464    2.5203    0.8748 H   0  0  0  0  0  0  0  0  0  0  0  0
    1.3885    2.3384    0.0144 H   0  0  0  0  0  0  0  0  0  0  0  0
   -0.1216    1.8444   -0.7596 H   0  0  0  0  0  0  0  0  0  0  0  0
   -0.6039   -1.1973    1.4296 H   0  0  0  0  0  0  0  0  0  0  0  0
   -1.3855    0.3930    1.6820 H   0  0  0  0  0  0  0  0  0  0  0  0
  1  2  1  0  0  0  0
  2  3  1  0  0  0  0
  2  4  1  0  0  0  0
  4  5  1  0  0  0  0
  2  6  1  0  0  0  0
  1  7  1  0  0  0  0
  1  8  1  0  0  0  0
  1  9  1  0  0  0  0
  4 10  1  0  0  0  0
  4 11  1  0  0  0  0
M  END
