 xtb: 6.7.1 (edcfbbe)
          04042516023D

 14 13  0     0  0            999 V2000
   -2.4951    0.0678    0.0009 C   0  0  0  0  0  0  0  0  0  0  0  0
   -1.2281   -0.7762   -0.0004 C   0  0  0  0  0  0  0  0  0  0  0  0
    0.0182    0.0694    0.0000 C   0  0  0  0  0  0  0  0  0  0  0  0
    0.0532    1.2807   -0.0007 O   0  0  0  0  0  0  0  0  0  0  0  0
    1.1148   -0.6877   -0.0005 O   0  0  0  0  0  0  0  0  0  0  0  0
    2.3782   -0.0177    0.0008 C   0  0  0  0  0  0  0  0  0  0  0  0
   -2.5250    0.7024    0.8828 H   0  0  0  0  0  0  0  0  0  0  0  0
   -2.5200    0.7118   -0.8744 H   0  0  0  0  0  0  0  0  0  0  0  0
   -3.3715   -0.5726   -0.0049 H   0  0  0  0  0  0  0  0  0  0  0  0
   -1.1874   -1.4207   -0.8802 H   0  0  0  0  0  0  0  0  0  0  0  0
   -1.1870   -1.4230    0.8776 H   0  0  0  0  0  0  0  0  0  0  0  0
    2.4449    0.6559   -0.8544 H   0  0  0  0  0  0  0  0  0  0  0  0
    3.1251   -0.8028   -0.0598 H   0  0  0  0  0  0  0  0  0  0  0  0
    2.4919    0.5611    0.9182 H   0  0  0  0  0  0  0  0  0  0  0  0
  1  2  1  0  0  0  0
  2  3  1  0  0  0  0
  3  4  2  0  0  0  0
  3  5  1  0  0  0  0
  5  6  1  0  0  0  0
  1  7  1  0  0  0  0
  1  8  1  0  0  0  0
  1  9  1  0  0  0  0
  2 10  1  0  0  0  0
  2 11  1  0  0  0  0
  6 12  1  0  0  0  0
  6 13  1  0  0  0  0
  6 14  1  0  0  0  0
M  END
