 xtb: 6.7.1 (edcfbbe)
          04062518003D

 24 24  0     0  0            999 V2000
   -2.3011   -0.8721    0.7117 C   0  0  0  0  0  0  0  0  0  0  0  0
   -0.8532   -0.3766    0.7836 C   0  0  0  0  0  0  0  0  0  0  0  0
   -0.6263   -0.0921    1.8227 H   0  0  0  0  0  0  0  0  0  0  0  0
   -0.6483    0.8437   -0.1320 C   0  0  0  0  0  0  0  0  0  0  0  0
   -0.9271    0.5514   -1.1500 H   0  0  0  0  0  0  0  0  0  0  0  0
    0.8254    1.3094   -0.1229 C   0  0  0  0  0  0  0  0  0  0  0  0
    0.9229    2.1417    0.5844 H   0  0  0  0  0  0  0  0  0  0  0  0
    1.7756    0.1738    0.3248 C   0  0  0  0  0  0  0  0  0  0  0  0
    2.7408    0.3255   -0.1760 H   0  0  0  0  0  0  0  0  0  0  0  0
    1.2097   -1.1640   -0.1641 C   0  0  0  0  0  0  0  0  0  0  0  0
    1.8802   -1.9846    0.1369 H   0  0  0  0  0  0  0  0  0  0  0  0
   -0.0176   -1.4742    0.4273 O   0  0  0  0  0  0  0  0  0  0  0  0
    1.1187   -1.0814   -1.5567 O   0  0  0  0  0  0  0  0  0  0  0  0
    1.9260    0.0983    1.7189 O   0  0  0  0  0  0  0  0  0  0  0  0
    1.2238    1.8377   -1.3613 O   0  0  0  0  0  0  0  0  0  0  0  0
   -1.5312    1.8823    0.2078 O   0  0  0  0  0  0  0  0  0  0  0  0
   -2.6140   -1.1921   -0.6240 O   0  0  0  0  0  0  0  0  0  0  0  0
   -2.9545   -0.0754    1.0851 H   0  0  0  0  0  0  0  0  0  0  0  0
   -2.3854   -1.7576    1.3525 H   0  0  0  0  0  0  0  0  0  0  0  0
    0.7181   -1.8934   -1.9029 H   0  0  0  0  0  0  0  0  0  0  0  0
    2.5099    0.8087    2.0231 H   0  0  0  0  0  0  0  0  0  0  0  0
    1.1866    1.1316   -2.0254 H   0  0  0  0  0  0  0  0  0  0  0  0
   -1.3051    2.2320    1.0823 H   0  0  0  0  0  0  0  0  0  0  0  0
   -3.5341   -1.4854   -0.6710 H   0  0  0  0  0  0  0  0  0  0  0  0
  1  2  1  0  0  0  0
  2  3  1  0  0  0  0
  2  4  1  0  0  0  0
  4  5  1  0  0  0  0
  4  6  1  0  0  0  0
  6  7  1  0  0  0  0
  6  8  1  0  0  0  0
  8  9  1  0  0  0  0
  8 10  1  0  0  0  0
 10 11  1  0  0  0  0
  2 12  1  0  0  0  0
 10 12  1  0  0  0  0
 10 13  1  0  0  0  0
  8 14  1  0  0  0  0
  6 15  1  0  0  0  0
  4 16  1  0  0  0  0
  1 17  1  0  0  0  0
  1 18  1  0  0  0  0
  1 19  1  0  0  0  0
 13 20  1  0  0  0  0
 14 21  1  0  0  0  0
 15 22  1  0  0  0  0
 16 23  1  0  0  0  0
 17 24  1  0  0  0  0
M  END
