 xtb: 6.7.1 (edcfbbe)
          04032522173D

 12 11  0     0  0            999 V2000
    1.5720    0.5307    0.1118 C   0  0  0  0  0  0  0  0  0  0  0  0
    0.6192   -0.5914   -0.2929 C   0  0  0  0  0  0  0  0  0  0  0  0
   -0.6547   -0.5218    0.3255 O   0  0  0  0  0  0  0  0  0  0  0  0
   -1.4737    0.5346   -0.1311 C   0  0  0  0  0  0  0  0  0  0  0  0
    2.5604    0.3194   -0.2842 H   0  0  0  0  0  0  0  0  0  0  0  0
    1.2389    1.4884   -0.2795 H   0  0  0  0  0  0  0  0  0  0  0  0
    1.6290    0.5928    1.1956 H   0  0  0  0  0  0  0  0  0  0  0  0
    1.0196   -1.5555    0.0290 H   0  0  0  0  0  0  0  0  0  0  0  0
    0.4953   -0.6050   -1.3857 H   0  0  0  0  0  0  0  0  0  0  0  0
   -1.0863    1.5092    0.1792 H   0  0  0  0  0  0  0  0  0  0  0  0
   -2.4494    0.3736    0.3213 H   0  0  0  0  0  0  0  0  0  0  0  0
   -1.5646    0.5117   -1.2226 H   0  0  0  0  0  0  0  0  0  0  0  0
  1  2  1  0  0  0  0
  2  3  1  0  0  0  0
  3  4  1  0  0  0  0
  1  5  1  0  0  0  0
  1  6  1  0  0  0  0
  1  7  1  0  0  0  0
  2  8  1  0  0  0  0
  2  9  1  0  0  0  0
  4 10  1  0  0  0  0
  4 11  1  0  0  0  0
  4 12  1  0  0  0  0
M  END
