24
 xtb: 6.7.1 (edcfbbe)
C           -2.58178145501658       -0.61108888930409       -0.31235385068087
C           -1.20508310751011       -0.26941446104463        0.22063172107921
H           -1.22581784477948       -0.24260770065886        1.32232783494270
C           -0.68799063317494        1.06479100065628       -0.31391016015051
H           -0.70482963825362        1.03567734513302       -1.41648766722584
C            0.74950094891476        1.29687181886736        0.15198524637590
H            0.74741381051772        1.42455330439795        1.24238012048154
C            1.63333246368430        0.10791378968804       -0.20038972447124
H            1.72039200905810        0.01919984937386       -1.29521159137214
C            0.99270979643013       -1.17302541683474        0.33111631482418
H            0.92333041739965       -1.14369854945463        1.43108675372600
O           -0.32101681664372       -1.31448822742541       -0.22166197989919
O            1.76391813806393       -2.26174157314791       -0.10195755032307
O            2.91411538617338        0.32015754251975        0.39484291537777
O            1.25916078141423        2.52680705561290       -0.37532488837824
O           -1.54504731750248        2.10149003128574        0.16995869840410
O           -3.08683787888250       -1.82880045297836        0.24791594413729
H           -2.54053690124829       -0.67340255852508       -1.40955528893528
H           -3.28491615692103        0.17702431014769       -0.03359123027889
H            1.57917086150094       -3.01519221405119        0.47473164228733
H            3.49686519089537       -0.38478342851310        0.08196489546683
H            1.28871545260503        2.44328816154416       -1.34011251011210
H           -1.12878607740422        2.94185331004401       -0.06975079261768
H           -2.48396775330711       -2.53586906910046       -0.01771233719117
