 xtb: 6.7.1 (edcfbbe)
          04062518003D

 24 24  0     0  0            999 V2000
   -2.2718   -0.9363    0.7751 C   0  0  0  0  0  0  0  0  0  0  0  0
   -0.8156   -0.4369    0.7492 C   0  0  0  0  0  0  0  0  0  0  0  0
   -0.5401   -0.1152    1.7631 H   0  0  0  0  0  0  0  0  0  0  0  0
   -0.6143    0.7366   -0.2135 C   0  0  0  0  0  0  0  0  0  0  0  0
   -0.7366    0.3569   -1.2407 H   0  0  0  0  0  0  0  0  0  0  0  0
    0.8201    1.2786   -0.0660 C   0  0  0  0  0  0  0  0  0  0  0  0
    0.8328    2.0252    0.7361 H   0  0  0  0  0  0  0  0  0  0  0  0
    1.7958    0.1545    0.3421 C   0  0  0  0  0  0  0  0  0  0  0  0
    2.7600    0.3544   -0.1464 H   0  0  0  0  0  0  0  0  0  0  0  0
    1.2664   -1.1916   -0.1809 C   0  0  0  0  0  0  0  0  0  0  0  0
    1.9375   -2.0125    0.1196 H   0  0  0  0  0  0  0  0  0  0  0  0
    0.0214   -1.5293    0.3710 O   0  0  0  0  0  0  0  0  0  0  0  0
    1.2185   -1.0910   -1.5747 O   0  0  0  0  0  0  0  0  0  0  0  0
    1.9238    0.1625    1.7391 O   0  0  0  0  0  0  0  0  0  0  0  0
    1.2373    1.9430   -1.2301 O   0  0  0  0  0  0  0  0  0  0  0  0
   -1.5868    1.7172    0.0564 O   0  0  0  0  0  0  0  0  0  0  0  0
   -2.9200   -0.8905   -0.4693 O   0  0  0  0  0  0  0  0  0  0  0  0
   -2.8219   -0.3505    1.5180 H   0  0  0  0  0  0  0  0  0  0  0  0
   -2.2557   -1.9855    1.0761 H   0  0  0  0  0  0  0  0  0  0  0  0
    0.8906   -1.9217   -1.9528 H   0  0  0  0  0  0  0  0  0  0  0  0
    2.6175   -0.4531    2.0174 H   0  0  0  0  0  0  0  0  0  0  0  0
    1.3094    1.2971   -1.9504 H   0  0  0  0  0  0  0  0  0  0  0  0
   -1.3608    2.5222   -0.4326 H   0  0  0  0  0  0  0  0  0  0  0  0
   -3.1025    0.0371   -0.6810 H   0  0  0  0  0  0  0  0  0  0  0  0
  1  2  1  0  0  0  0
  2  3  1  0  0  0  0
  2  4  1  0  0  0  0
  4  5  1  0  0  0  0
  4  6  1  0  0  0  0
  6  7  1  0  0  0  0
  6  8  1  0  0  0  0
  8  9  1  0  0  0  0
  8 10  1  0  0  0  0
 10 11  1  0  0  0  0
  2 12  1  0  0  0  0
 10 12  1  0  0  0  0
 10 13  1  0  0  0  0
  8 14  1  0  0  0  0
  6 15  1  0  0  0  0
  4 16  1  0  0  0  0
  1 17  1  0  0  0  0
  1 18  1  0  0  0  0
  1 19  1  0  0  0  0
 13 20  1  0  0  0  0
 14 21  1  0  0  0  0
 15 22  1  0  0  0  0
 16 23  1  0  0  0  0
 17 24  1  0  0  0  0
M  END
