18
 xtb: 6.7.1 (edcfbbe)
C           -2.12811682693624       -0.00576747797030       -0.31877392784957
C           -0.80902958629977       -0.06676609297158        0.44381623005658
C            0.09953040471948       -1.22669194775261       -0.03105760550623
C            1.52636314466291       -0.68408673328219        0.08273190479052
C            1.36337869971958        0.76114028381600       -0.39846713848453
C            0.05968573893710        1.21769473086797        0.27930667419992
H           -1.94699620419949        0.18225440467121       -1.38408883124856
H           -2.67864798657945       -0.95002930515254       -0.23425461001198
H           -2.77450990540563        0.79392700392936        0.05948729647454
H           -1.03240181439380       -0.20865757393849        1.50787748495996
H           -0.06523158213865       -2.14611147252876        0.53987189853955
H           -0.11738920010087       -1.44888714057790       -1.08461656863666
H            1.85201082891441       -0.69295177029737        1.13110105603457
H            2.25430038335491       -1.25687659312219       -0.50104914071110
H            2.21702517628362        1.40189749809212       -0.15583139067926
H            1.24446009327152        0.76500915950032       -1.48926460115580
H            0.28377748642885        1.64875870271901        1.26102568464560
H           -0.46202997752573        1.98737406763389       -0.29941399910801
