 xtb: 6.7.1 (edcfbbe)
          04042520303D

 16 16  0     0  0            999 V2000
   -2.4884   -1.1827   -0.0124 C   0  0  0  0  0  0  0  0  0  0  0  0
   -1.7168    0.1007    0.0001 C   0  0  0  0  0  0  0  0  0  0  0  0
   -2.2670    1.1884    0.0094 O   0  0  0  0  0  0  0  0  0  0  0  0
   -0.2288    0.0055    0.0000 C   0  0  0  0  0  0  0  0  0  0  0  0
    0.5153    1.1859   -0.0060 C   0  0  0  0  0  0  0  0  0  0  0  0
    1.8979    1.1059   -0.0060 C   0  0  0  0  0  0  0  0  0  0  0  0
    2.5574   -0.0419   -0.0003 N   0  0  0  0  0  0  0  0  0  0  0  0
    1.8532   -1.1628    0.0058 C   0  0  0  0  0  0  0  0  0  0  0  0
    0.4673   -1.2026    0.0061 C   0  0  0  0  0  0  0  0  0  0  0  0
   -3.5526   -0.9635   -0.0196 H   0  0  0  0  0  0  0  0  0  0  0  0
   -2.2430   -1.7685    0.8702 H   0  0  0  0  0  0  0  0  0  0  0  0
   -2.2284   -1.7617   -0.8951 H   0  0  0  0  0  0  0  0  0  0  0  0
    0.0035    2.1357   -0.0105 H   0  0  0  0  0  0  0  0  0  0  0  0
    2.5095    1.9972   -0.0107 H   0  0  0  0  0  0  0  0  0  0  0  0
    2.4349   -2.0741    0.0105 H   0  0  0  0  0  0  0  0  0  0  0  0
   -0.0405   -2.1517    0.0116 H   0  0  0  0  0  0  0  0  0  0  0  0
  1  2  1  0  0  0  0
  2  3  2  0  0  0  0
  2  4  1  0  0  0  0
  4  5  4  0  0  0  0
  5  6  4  0  0  0  0
  6  7  4  0  0  0  0
  7  8  4  0  0  0  0
  4  9  4  0  0  0  0
  8  9  4  0  0  0  0
  1 10  1  0  0  0  0
  1 11  1  0  0  0  0
  1 12  1  0  0  0  0
  5 13  1  0  0  0  0
  6 14  1  0  0  0  0
  8 15  1  0  0  0  0
  9 16  1  0  0  0  0
M  END
