 xtb: 6.7.1 (edcfbbe)
          04032521083D

 18 18  0     0  0            999 V2000
   -2.0534   -0.1097   -0.4034 C   0  0  0  0  0  0  0  0  0  0  0  0
   -0.8146    0.0062    0.4793 C   0  0  0  0  0  0  0  0  0  0  0  0
    0.1300   -1.2026    0.3135 C   0  0  0  0  0  0  0  0  0  0  0  0
    1.3253   -0.6770   -0.4798 C   0  0  0  0  0  0  0  0  0  0  0  0
    1.4772    0.7483    0.0401 C   0  0  0  0  0  0  0  0  0  0  0  0
    0.0326    1.2426    0.1114 C   0  0  0  0  0  0  0  0  0  0  0  0
   -1.7660   -0.2288   -1.4459 H   0  0  0  0  0  0  0  0  0  0  0  0
   -2.6529   -0.9687   -0.1101 H   0  0  0  0  0  0  0  0  0  0  0  0
   -2.6683    0.7834   -0.3143 H   0  0  0  0  0  0  0  0  0  0  0  0
   -1.1431    0.0760    1.5201 H   0  0  0  0  0  0  0  0  0  0  0  0
    0.4672   -1.5508    1.2908 H   0  0  0  0  0  0  0  0  0  0  0  0
   -0.3634   -2.0339   -0.1879 H   0  0  0  0  0  0  0  0  0  0  0  0
    2.2206   -1.2796   -0.3339 H   0  0  0  0  0  0  0  0  0  0  0  0
    1.0914   -0.6579   -1.5454 H   0  0  0  0  0  0  0  0  0  0  0  0
    1.9203    0.7311    1.0373 H   0  0  0  0  0  0  0  0  0  0  0  0
    2.0983    1.3705   -0.6026 H   0  0  0  0  0  0  0  0  0  0  0  0
   -0.0898    2.0506    0.8313 H   0  0  0  0  0  0  0  0  0  0  0  0
   -0.2728    1.6158   -0.8672 H   0  0  0  0  0  0  0  0  0  0  0  0
  1  2  1  0  0  0  0
  2  3  1  0  0  0  0
  3  4  1  0  0  0  0
  4  5  1  0  0  0  0
  2  6  1  0  0  0  0
  5  6  1  0  0  0  0
  1  7  1  0  0  0  0
  1  8  1  0  0  0  0
  1  9  1  0  0  0  0
  2 10  1  0  0  0  0
  3 11  1  0  0  0  0
  3 12  1  0  0  0  0
  4 13  1  0  0  0  0
  4 14  1  0  0  0  0
  5 15  1  0  0  0  0
  5 16  1  0  0  0  0
  6 17  1  0  0  0  0
  6 18  1  0  0  0  0
M  END
