16
 xtb: 6.7.1 (edcfbbe)
C           -2.54531482484184       -1.02336536069251       -0.00121493052545
C           -1.24057644801843       -0.27776592261010        0.00187222582833
C           -1.20497396323836        1.11916257717796        0.00138956229452
C            0.01661630415602        1.79198064861586       -0.00024769718226
C            1.21656980816914        1.09190723831262       -0.00110096489449
C            1.17998828766370       -0.30296131141937       -0.00019081762402
C           -0.03373566080266       -0.98514758167858        0.00145468248551
O            2.38945352068288       -0.96613897805697       -0.00035232986087
H           -2.64679463215815       -1.63141335807840       -0.90687284599856
H           -2.60988225406480       -1.70642488618953        0.85237468447383
H           -3.39253046338333       -0.33501126942039        0.04421068465588
H           -2.13470317043943        1.67985501979557        0.00257686813019
H            0.03462465847086        2.87765845454360       -0.00030733592074
H            2.17183649855692        1.60635789291752       -0.00178884544910
H           -0.03782977318687       -2.07302097249258        0.00242269819992
H            2.22391495541204       -1.91928468250760        0.00030236943961
