 xtb: 6.7.1 (edcfbbe)
          04042522133D

 17 18  0     0  0            999 V2000
   -0.1784   -2.3304   -0.0139 C   0  0  0  0  0  0  0  0  0  0  0  0
    0.5003   -1.0061   -0.0048 C   0  0  0  0  0  0  0  0  0  0  0  0
    1.8929   -0.9595   -0.0044 C   0  0  0  0  0  0  0  0  0  0  0  0
    2.5894    0.2337    0.0024 C   0  0  0  0  0  0  0  0  0  0  0  0
    1.9050    1.4435    0.0080 C   0  0  0  0  0  0  0  0  0  0  0  0
    0.5298    1.4367    0.0070 C   0  0  0  0  0  0  0  0  0  0  0  0
   -0.1766    0.2277    0.0014 C   0  0  0  0  0  0  0  0  0  0  0  0
   -1.5927    0.3218    0.0016 N   0  0  0  0  0  0  0  0  0  0  0  0
   -2.1018    1.4384   -0.0274 O   0  0  0  0  0  0  0  0  0  0  0  0
   -2.2730   -0.6934    0.0308 O   0  0  0  0  0  0  0  0  0  0  0  0
   -0.8072   -2.4457    0.8678 H   0  0  0  0  0  0  0  0  0  0  0  0
   -0.8406   -2.4193   -0.8739 H   0  0  0  0  0  0  0  0  0  0  0  0
    0.5553   -3.1304   -0.0397 H   0  0  0  0  0  0  0  0  0  0  0  0
    2.4373   -1.8908   -0.0096 H   0  0  0  0  0  0  0  0  0  0  0  0
    3.6678    0.2247    0.0034 H   0  0  0  0  0  0  0  0  0  0  0  0
    2.4411    2.3782    0.0136 H   0  0  0  0  0  0  0  0  0  0  0  0
   -0.0343    2.3564    0.0120 H   0  0  0  0  0  0  0  0  0  0  0  0
  1  2  1  0  0  0  0
  2  3  4  0  0  0  0
  3  4  4  0  0  0  0
  4  5  4  0  0  0  0
  5  6  4  0  0  0  0
  2  7  4  0  0  0  0
  6  7  4  0  0  0  0
  7  8  1  0  0  0  0
  8  9  4  0  0  0  0
  8 10  4  0  0  0  0
  9 10  1  0  0  0  0
  1 11  1  0  0  0  0
  1 12  1  0  0  0  0
  1 13  1  0  0  0  0
  3 14  1  0  0  0  0
  4 15  1  0  0  0  0
  5 16  1  0  0  0  0
  6 17  1  0  0  0  0
M  END
