 xtb: 6.7.1 (edcfbbe)
          04062518003D

 24 24  0     0  0            999 V2000
   -2.2130   -1.2166    0.0848 C   0  0  0  0  0  0  0  0  0  0  0  0
   -0.8606   -0.5783    0.4208 C   0  0  0  0  0  0  0  0  0  0  0  0
   -0.8276   -0.3394    1.4942 H   0  0  0  0  0  0  0  0  0  0  0  0
   -0.6249    0.7140   -0.3675 C   0  0  0  0  0  0  0  0  0  0  0  0
   -0.7050    0.4726   -1.4426 H   0  0  0  0  0  0  0  0  0  0  0  0
    0.7915    1.2695   -0.0961 C   0  0  0  0  0  0  0  0  0  0  0  0
    0.6913    2.0768    0.6410 H   0  0  0  0  0  0  0  0  0  0  0  0
    1.7308    0.2093    0.5038 C   0  0  0  0  0  0  0  0  0  0  0  0
    2.7571    0.4978    0.2342 H   0  0  0  0  0  0  0  0  0  0  0  0
    1.4284   -1.1444   -0.1544 C   0  0  0  0  0  0  0  0  0  0  0  0
    2.0626   -1.9440    0.2521 H   0  0  0  0  0  0  0  0  0  0  0  0
    0.1112   -1.5743    0.1177 O   0  0  0  0  0  0  0  0  0  0  0  0
    1.6922   -1.1091   -1.5223 O   0  0  0  0  0  0  0  0  0  0  0  0
    1.5548    0.1863    1.8947 O   0  0  0  0  0  0  0  0  0  0  0  0
    1.3948    1.7287   -1.2844 O   0  0  0  0  0  0  0  0  0  0  0  0
   -1.5438    1.7247   -0.0351 O   0  0  0  0  0  0  0  0  0  0  0  0
   -3.2514   -0.3722    0.5271 O   0  0  0  0  0  0  0  0  0  0  0  0
   -2.2464   -2.1912    0.5828 H   0  0  0  0  0  0  0  0  0  0  0  0
   -2.2662   -1.3747   -1.0000 H   0  0  0  0  0  0  0  0  0  0  0  0
    1.5616   -0.2095   -1.8736 H   0  0  0  0  0  0  0  0  0  0  0  0
    2.2220   -0.3833    2.3045 H   0  0  0  0  0  0  0  0  0  0  0  0
    0.9257    2.5138   -1.6023 H   0  0  0  0  0  0  0  0  0  0  0  0
   -2.4077    1.3165    0.1527 H   0  0  0  0  0  0  0  0  0  0  0  0
   -4.1036   -0.8105    0.3925 H   0  0  0  0  0  0  0  0  0  0  0  0
  1  2  1  0  0  0  0
  2  3  1  0  0  0  0
  2  4  1  0  0  0  0
  4  5  1  0  0  0  0
  4  6  1  0  0  0  0
  6  7  1  0  0  0  0
  6  8  1  0  0  0  0
  8  9  1  0  0  0  0
  8 10  1  0  0  0  0
 10 11  1  0  0  0  0
  2 12  1  0  0  0  0
 10 12  1  0  0  0  0
 10 13  1  0  0  0  0
  8 14  1  0  0  0  0
  6 15  1  0  0  0  0
  4 16  1  0  0  0  0
  1 17  1  0  0  0  0
  1 18  1  0  0  0  0
  1 19  1  0  0  0  0
 13 20  1  0  0  0  0
 14 21  1  0  0  0  0
 15 22  1  0  0  0  0
 16 23  1  0  0  0  0
 17 24  1  0  0  0  0
M  END
