 xtb: 6.7.1 (edcfbbe)
          04042520083D

 15 16  0     0  0            999 V2000
   -1.0896   -1.8648   -0.0001 C   0  0  0  0  0  0  0  0  0  0  0  0
    0.2423   -1.4902   -0.0001 C   0  0  0  0  0  0  0  0  0  0  0  0
    0.5513   -0.1331    0.0000 C   0  0  0  0  0  0  0  0  0  0  0  0
   -0.4404    0.8447    0.0001 C   0  0  0  0  0  0  0  0  0  0  0  0
   -1.7736    0.4556    0.0001 C   0  0  0  0  0  0  0  0  0  0  0  0
   -2.0880   -0.9086   -0.0000 C   0  0  0  0  0  0  0  0  0  0  0  0
   -2.7893    1.3353    0.0002 O   0  0  0  0  0  0  0  0  0  0  0  0
    1.9135    0.2743    0.0000 N   0  0  0  0  0  0  0  0  0  0  0  0
    2.7822   -0.5849    0.0002 O   0  0  0  0  0  0  0  0  0  0  0  0
    2.1663    1.4705   -0.0001 O   0  0  0  0  0  0  0  0  0  0  0  0
   -1.3513   -2.9100   -0.0002 H   0  0  0  0  0  0  0  0  0  0  0  0
    1.0392   -2.2157   -0.0002 H   0  0  0  0  0  0  0  0  0  0  0  0
   -0.1497    1.8843    0.0002 H   0  0  0  0  0  0  0  0  0  0  0  0
   -3.1288   -1.1890   -0.0001 H   0  0  0  0  0  0  0  0  0  0  0  0
   -2.4729    2.2525    0.0002 H   0  0  0  0  0  0  0  0  0  0  0  0
  1  2  4  0  0  0  0
  2  3  4  0  0  0  0
  3  4  4  0  0  0  0
  4  5  4  0  0  0  0
  1  6  4  0  0  0  0
  5  6  4  0  0  0  0
  5  7  1  0  0  0  0
  3  8  1  0  0  0  0
  8  9  4  0  0  0  0
  8 10  4  0  0  0  0
  9 10  1  0  0  0  0
  1 11  1  0  0  0  0
  2 12  1  0  0  0  0
  4 13  1  0  0  0  0
  6 14  1  0  0  0  0
  7 15  1  0  0  0  0
M  END
