 xtb: 6.7.1 (edcfbbe)
          04032521053D

 12 12  0     0  0            999 V2000
    2.1085    0.0246    0.0012 C   0  0  0  0  0  0  0  0  0  0  0  0
    0.6705   -0.0095   -0.0014 N   0  0  0  0  0  0  0  0  0  0  0  0
   -0.1237   -1.1175    0.0015 C   0  0  0  0  0  0  0  0  0  0  0  0
   -1.4113   -0.6627    0.0012 C   0  0  0  0  0  0  0  0  0  0  0  0
   -1.4236    0.6977   -0.0015 N   0  0  0  0  0  0  0  0  0  0  0  0
   -0.1627    1.0518   -0.0026 C   0  0  0  0  0  0  0  0  0  0  0  0
    2.4720    0.5132    0.9059 H   0  0  0  0  0  0  0  0  0  0  0  0
    2.4892   -0.9932   -0.0339 H   0  0  0  0  0  0  0  0  0  0  0  0
    2.4721    0.5750   -0.8668 H   0  0  0  0  0  0  0  0  0  0  0  0
    0.2763   -2.1099    0.0031 H   0  0  0  0  0  0  0  0  0  0  0  0
   -2.3263   -1.2204    0.0025 H   0  0  0  0  0  0  0  0  0  0  0  0
    0.1799    2.0669   -0.0049 H   0  0  0  0  0  0  0  0  0  0  0  0
  1  2  1  0  0  0  0
  2  3  4  0  0  0  0
  3  4  2  0  0  0  0
  4  5  4  0  0  0  0
  2  6  4  0  0  0  0
  5  6  2  0  0  0  0
  1  7  1  0  0  0  0
  1  8  1  0  0  0  0
  1  9  1  0  0  0  0
  3 10  1  0  0  0  0
  4 11  1  0  0  0  0
  6 12  1  0  0  0  0
M  END
