 xtb: 6.7.1 (edcfbbe)
          04042521073D

 15 14  0     0  0            999 V2000
   -2.3869    0.0426    0.1377 C   0  0  0  0  0  0  0  0  0  0  0  0
   -0.9533    0.4879   -0.1314 C   0  0  0  0  0  0  0  0  0  0  0  0
   -0.0027   -0.6742   -0.1520 C   0  0  0  0  0  0  0  0  0  0  0  0
    1.3148   -0.6133   -0.0303 C   0  0  0  0  0  0  0  0  0  0  0  0
    2.1370    0.6216    0.1459 C   0  0  0  0  0  0  0  0  0  0  0  0
   -2.4535   -0.4608    1.0998 H   0  0  0  0  0  0  0  0  0  0  0  0
   -2.7248   -0.6451   -0.6346 H   0  0  0  0  0  0  0  0  0  0  0  0
   -3.0561    0.8998    0.1509 H   0  0  0  0  0  0  0  0  0  0  0  0
   -0.9118    1.0021   -1.0970 H   0  0  0  0  0  0  0  0  0  0  0  0
   -0.6494    1.2058    0.6336 H   0  0  0  0  0  0  0  0  0  0  0  0
   -0.4687   -1.6411   -0.2907 H   0  0  0  0  0  0  0  0  0  0  0  0
    1.8868   -1.5324   -0.0644 H   0  0  0  0  0  0  0  0  0  0  0  0
    2.7428    0.5406    1.0478 H   0  0  0  0  0  0  0  0  0  0  0  0
    1.5198    1.5119    0.2124 H   0  0  0  0  0  0  0  0  0  0  0  0
    2.8172    0.7331   -0.6980 H   0  0  0  0  0  0  0  0  0  0  0  0
  1  2  1  0  0  0  0
  2  3  1  0  0  0  0
  3  4  2  0  0  0  0
  4  5  1  0  0  0  0
  1  6  1  0  0  0  0
  1  7  1  0  0  0  0
  1  8  1  0  0  0  0
  2  9  1  0  0  0  0
  2 10  1  0  0  0  0
  3 11  1  0  0  0  0
  4 12  1  0  0  0  0
  5 13  1  0  0  0  0
  5 14  1  0  0  0  0
  5 15  1  0  0  0  0
M  END
