 xtb: 6.7.1 (edcfbbe)
          04062519153D

 24 24  0     0  0            999 V2000
   -2.5240   -0.9659    0.3790 C   0  0  0  0  0  0  0  0  0  0  0  0
   -1.0956   -0.4612    0.6312 C   0  0  0  0  0  0  0  0  0  0  0  0
   -0.9298   -0.3643    1.7154 H   0  0  0  0  0  0  0  0  0  0  0  0
   -0.8267    0.8991   -0.0357 C   0  0  0  0  0  0  0  0  0  0  0  0
   -0.9936    0.8021   -1.1167 H   0  0  0  0  0  0  0  0  0  0  0  0
    0.6375    1.2822    0.2044 C   0  0  0  0  0  0  0  0  0  0  0  0
    0.7810    1.4307    1.2872 H   0  0  0  0  0  0  0  0  0  0  0  0
    1.5825    0.1699   -0.2642 C   0  0  0  0  0  0  0  0  0  0  0  0
    1.5433    0.1035   -1.3612 H   0  0  0  0  0  0  0  0  0  0  0  0
    1.1491   -1.1868    0.3083 C   0  0  0  0  0  0  0  0  0  0  0  0
    1.3557   -1.1751    1.3987 H   0  0  0  0  0  0  0  0  0  0  0  0
   -0.2214   -1.4391    0.0952 O   0  0  0  0  0  0  0  0  0  0  0  0
    1.8577   -2.1772   -0.3340 O   0  0  0  0  0  0  0  0  0  0  0  0
    2.8930    0.4089    0.1738 O   0  0  0  0  0  0  0  0  0  0  0  0
    0.9895    2.4522   -0.4920 O   0  0  0  0  0  0  0  0  0  0  0  0
   -1.6157    1.9306    0.5067 O   0  0  0  0  0  0  0  0  0  0  0  0
   -2.8540   -0.9859   -0.9849 O   0  0  0  0  0  0  0  0  0  0  0  0
   -3.2374   -0.2987    0.8645 H   0  0  0  0  0  0  0  0  0  0  0  0
   -2.6150   -1.9654    0.8190 H   0  0  0  0  0  0  0  0  0  0  0  0
    1.5560   -3.0485   -0.0302 H   0  0  0  0  0  0  0  0  0  0  0  0
    3.1762    1.2680   -0.1763 H   0  0  0  0  0  0  0  0  0  0  0  0
    0.3547    3.1470   -0.2603 H   0  0  0  0  0  0  0  0  0  0  0  0
   -2.5175    1.8650    0.1635 H   0  0  0  0  0  0  0  0  0  0  0  0
   -2.2658   -1.6097   -1.4338 H   0  0  0  0  0  0  0  0  0  0  0  0
  1  2  1  0  0  0  0
  2  3  1  0  0  0  0
  2  4  1  0  0  0  0
  4  5  1  0  0  0  0
  4  6  1  0  0  0  0
  6  7  1  0  0  0  0
  6  8  1  0  0  0  0
  8  9  1  0  0  0  0
  8 10  1  0  0  0  0
 10 11  1  0  0  0  0
  2 12  1  0  0  0  0
 10 12  1  0  0  0  0
 10 13  1  0  0  0  0
  8 14  1  0  0  0  0
  6 15  1  0  0  0  0
  4 16  1  0  0  0  0
  1 17  1  0  0  0  0
  1 18  1  0  0  0  0
  1 19  1  0  0  0  0
 13 20  1  0  0  0  0
 14 21  1  0  0  0  0
 15 22  1  0  0  0  0
 16 23  1  0  0  0  0
 17 24  1  0  0  0  0
M  END
