 xtb: 6.7.1 (edcfbbe)
          04062518003D

 24 24  0     0  0            999 V2000
   -1.9702   -0.6432   -0.7850 C   0  0  0  0  0  0  0  0  0  0  0  0
   -1.1693   -0.1296    0.4221 C   0  0  0  0  0  0  0  0  0  0  0  0
   -1.8532   -0.0755    1.2788 H   0  0  0  0  0  0  0  0  0  0  0  0
   -0.5997    1.2828    0.2217 C   0  0  0  0  0  0  0  0  0  0  0  0
   -1.3208    1.8513   -0.3793 H   0  0  0  0  0  0  0  0  0  0  0  0
    0.7566    1.2939   -0.5223 C   0  0  0  0  0  0  0  0  0  0  0  0
    1.1895    2.2985   -0.4214 H   0  0  0  0  0  0  0  0  0  0  0  0
    1.7096    0.2920    0.1466 C   0  0  0  0  0  0  0  0  0  0  0  0
    2.6234    0.2022   -0.4510 H   0  0  0  0  0  0  0  0  0  0  0  0
    1.0491   -1.1000    0.1998 C   0  0  0  0  0  0  0  0  0  0  0  0
    1.6634   -1.7438    0.8446 H   0  0  0  0  0  0  0  0  0  0  0  0
   -0.1999   -1.0926    0.8417 O   0  0  0  0  0  0  0  0  0  0  0  0
    0.9868   -1.5968   -1.1076 O   0  0  0  0  0  0  0  0  0  0  0  0
    2.1086    0.7092    1.4231 O   0  0  0  0  0  0  0  0  0  0  0  0
    0.6069    1.0707   -1.9003 O   0  0  0  0  0  0  0  0  0  0  0  0
   -0.4598    1.8533    1.5084 O   0  0  0  0  0  0  0  0  0  0  0  0
   -2.7862   -1.7336   -0.4265 O   0  0  0  0  0  0  0  0  0  0  0  0
   -1.2944   -0.9234   -1.6004 H   0  0  0  0  0  0  0  0  0  0  0  0
   -2.6470    0.1356   -1.1395 H   0  0  0  0  0  0  0  0  0  0  0  0
    0.8634   -2.5575   -1.1081 H   0  0  0  0  0  0  0  0  0  0  0  0
    1.3125    0.9179    1.9455 H   0  0  0  0  0  0  0  0  0  0  0  0
    0.6674    0.1182   -2.0781 H   0  0  0  0  0  0  0  0  0  0  0  0
   -0.3563    2.8128    1.4372 H   0  0  0  0  0  0  0  0  0  0  0  0
   -2.2513   -2.3701    0.0697 H   0  0  0  0  0  0  0  0  0  0  0  0
  1  2  1  0  0  0  0
  2  3  1  0  0  0  0
  2  4  1  0  0  0  0
  4  5  1  0  0  0  0
  4  6  1  0  0  0  0
  6  7  1  0  0  0  0
  6  8  1  0  0  0  0
  8  9  1  0  0  0  0
  8 10  1  0  0  0  0
 10 11  1  0  0  0  0
  2 12  1  0  0  0  0
 10 12  1  0  0  0  0
 10 13  1  0  0  0  0
  8 14  1  0  0  0  0
  6 15  1  0  0  0  0
  4 16  1  0  0  0  0
  1 17  1  0  0  0  0
  1 18  1  0  0  0  0
  1 19  1  0  0  0  0
 13 20  1  0  0  0  0
 14 21  1  0  0  0  0
 15 22  1  0  0  0  0
 16 23  1  0  0  0  0
 17 24  1  0  0  0  0
M  END
