 xtb: 6.7.1 (edcfbbe)
          04062518003D

 24 24  0     0  0            999 V2000
   -2.3883   -1.1250   -0.3931 C   0  0  0  0  0  0  0  0  0  0  0  0
   -1.0721   -0.6204    0.2224 C   0  0  0  0  0  0  0  0  0  0  0  0
   -1.1379   -0.6435    1.3236 H   0  0  0  0  0  0  0  0  0  0  0  0
   -0.7881    0.8385   -0.1941 C   0  0  0  0  0  0  0  0  0  0  0  0
   -0.8739    0.9329   -1.2871 H   0  0  0  0  0  0  0  0  0  0  0  0
    0.6379    1.2505    0.1945 C   0  0  0  0  0  0  0  0  0  0  0  0
    0.6670    1.3762    1.2899 H   0  0  0  0  0  0  0  0  0  0  0  0
    1.6556    0.1755   -0.2287 C   0  0  0  0  0  0  0  0  0  0  0  0
    1.6826    0.1377   -1.3239 H   0  0  0  0  0  0  0  0  0  0  0  0
    1.2143   -1.1989    0.3079 C   0  0  0  0  0  0  0  0  0  0  0  0
    1.1737   -1.1655    1.4112 H   0  0  0  0  0  0  0  0  0  0  0  0
   -0.0630   -1.5089   -0.2100 O   0  0  0  0  0  0  0  0  0  0  0  0
    2.0823   -2.2188   -0.0084 O   0  0  0  0  0  0  0  0  0  0  0  0
    2.9554    0.5249    0.1712 O   0  0  0  0  0  0  0  0  0  0  0  0
    0.9313    2.4739   -0.4324 O   0  0  0  0  0  0  0  0  0  0  0  0
   -1.6789    1.7110    0.4515 O   0  0  0  0  0  0  0  0  0  0  0  0
   -3.5069   -0.4003    0.0504 O   0  0  0  0  0  0  0  0  0  0  0  0
   -2.4807   -2.1940   -0.1789 H   0  0  0  0  0  0  0  0  0  0  0  0
   -2.3411   -0.9946   -1.4766 H   0  0  0  0  0  0  0  0  0  0  0  0
    2.0750   -2.3772   -0.9655 H   0  0  0  0  0  0  0  0  0  0  0  0
    3.0732    0.3580    1.1176 H   0  0  0  0  0  0  0  0  0  0  0  0
    1.8800    2.6501   -0.3284 H   0  0  0  0  0  0  0  0  0  0  0  0
   -2.5859    1.4597    0.2005 H   0  0  0  0  0  0  0  0  0  0  0  0
   -3.7383   -0.6713    0.9503 H   0  0  0  0  0  0  0  0  0  0  0  0
  1  2  1  0  0  0  0
  2  3  1  0  0  0  0
  2  4  1  0  0  0  0
  4  5  1  0  0  0  0
  4  6  1  0  0  0  0
  6  7  1  0  0  0  0
  6  8  1  0  0  0  0
  8  9  1  0  0  0  0
  8 10  1  0  0  0  0
 10 11  1  0  0  0  0
  2 12  1  0  0  0  0
 10 12  1  0  0  0  0
 10 13  1  0  0  0  0
  8 14  1  0  0  0  0
  6 15  1  0  0  0  0
  4 16  1  0  0  0  0
  1 17  1  0  0  0  0
  1 18  1  0  0  0  0
  1 19  1  0  0  0  0
 13 20  1  0  0  0  0
 14 21  1  0  0  0  0
 15 22  1  0  0  0  0
 16 23  1  0  0  0  0
 17 24  1  0  0  0  0
M  END
