 xtb: 6.7.1 (edcfbbe)
          04032521143D

 18 18  0     0  0            999 V2000
   -2.1137   -0.0032   -0.3259 C   0  0  0  0  0  0  0  0  0  0  0  0
   -0.8021   -0.0674    0.4486 C   0  0  0  0  0  0  0  0  0  0  0  0
    0.0944   -1.2245   -0.0274 C   0  0  0  0  0  0  0  0  0  0  0  0
    1.5174   -0.6828    0.0710 C   0  0  0  0  0  0  0  0  0  0  0  0
    1.3546    0.7616   -0.3916 C   0  0  0  0  0  0  0  0  0  0  0  0
    0.0522    1.2095    0.2781 C   0  0  0  0  0  0  0  0  0  0  0  0
   -1.9223    0.1697   -1.3828 H   0  0  0  0  0  0  0  0  0  0  0  0
   -2.6606   -0.9380   -0.2229 H   0  0  0  0  0  0  0  0  0  0  0  0
   -2.7399    0.8036    0.0486 H   0  0  0  0  0  0  0  0  0  0  0  0
   -1.0368   -0.2060    1.5081 H   0  0  0  0  0  0  0  0  0  0  0  0
   -0.0525   -2.1273    0.5636 H   0  0  0  0  0  0  0  0  0  0  0  0
   -0.1333   -1.4591   -1.0687 H   0  0  0  0  0  0  0  0  0  0  0  0
    1.8577   -0.7058    1.1076 H   0  0  0  0  0  0  0  0  0  0  0  0
    2.2235   -1.2450   -0.5385 H   0  0  0  0  0  0  0  0  0  0  0  0
    2.1997    1.3912   -0.1170 H   0  0  0  0  0  0  0  0  0  0  0  0
    1.2473    0.7863   -1.4772 H   0  0  0  0  0  0  0  0  0  0  0  0
    0.2680    1.6495    1.2521 H   0  0  0  0  0  0  0  0  0  0  0  0
   -0.4673    1.9591   -0.3173 H   0  0  0  0  0  0  0  0  0  0  0  0
  1  2  1  0  0  0  0
  2  3  1  0  0  0  0
  3  4  1  0  0  0  0
  4  5  1  0  0  0  0
  2  6  1  0  0  0  0
  5  6  1  0  0  0  0
  1  7  1  0  0  0  0
  1  8  1  0  0  0  0
  1  9  1  0  0  0  0
  2 10  1  0  0  0  0
  3 11  1  0  0  0  0
  3 12  1  0  0  0  0
  4 13  1  0  0  0  0
  4 14  1  0  0  0  0
  5 15  1  0  0  0  0
  5 16  1  0  0  0  0
  6 17  1  0  0  0  0
  6 18  1  0  0  0  0
M  END
