19
 xtb: 6.7.1 (edcfbbe)
C           -2.43110116574622       -1.05858168439842       -0.72042733659831
C           -1.72997435007757        0.01952781975361        0.05916300990831
C           -2.42497795287893        0.91113013397372        0.78101763737545
C           -0.24834914872588        0.04289542148136        0.01429489289717
C            0.48408826010332       -1.13223735030485       -0.21364838201541
C            1.87599830849062       -1.11559917711690       -0.23752569729290
C            2.56886029600566        0.07724353729653       -0.05117365948910
C            1.85456021961154        1.25694490599786        0.15532105419440
C            0.46557357326294        1.24047521219246        0.18462757167807
H           -2.07488146367640       -1.09432452992705       -1.75512325870107
H           -2.24677564882587       -2.04770437584320       -0.28703434163570
H           -3.50952919554380       -0.89153506233065       -0.72372497407461
H           -1.93753898572926        1.66576749248094        1.39020032382635
H           -3.51064059219820        0.88999674878664        0.79232946238195
H           -0.03347389122276       -2.07435369238443       -0.35876499450970
H            2.41985323894946       -2.04035535883405       -0.40479326830824
H            3.65389948026680        0.09121216106083       -0.07696127068369
H            2.38260290674811        2.19726689004613        0.28164842564050
H           -0.07518071896837        2.17186510912413        0.31824807435519
