22
 xtb: 6.7.1 (edcfbbe)
C           -3.70663726170786       -0.21121708056397       -0.05151534403723
C           -3.05217749240745       -1.05540285183928        0.84187599628168
C           -1.66258518045938       -1.13704187233422        0.83619936638324
C           -0.90935724592005       -0.36695753209610       -0.05705404248863
C           -1.57505663465242        0.47453476469685       -0.95598121390531
C           -2.96382143315512        0.54880984448234       -0.95342339030568
C            0.56534371708421       -0.49534372940035       -0.07201027143091
C            1.14074637896021       -1.76432377053426       -0.23408632678601
C            2.51764217740612       -1.94420447039820       -0.26497247263429
C            3.36295339015252       -0.84676517072065       -0.12940092898774
C            2.82683546693965        0.42394874724542        0.04816332280866
C            1.44611450655456        0.58290886150879        0.07731037732368
Cl           0.82571627072898        2.20835373778532        0.37860004892137
H           -4.79019366913566       -0.14795834705670       -0.04853791236039
H           -3.62289476128384       -1.65137121346632        1.54716977577450
H           -1.15339730566417       -1.79264909481814        1.53628163067957
H           -1.00411282277080        1.05812098165429       -1.67070727995582
H           -3.46766828624198        1.19929128405631       -1.66158870881912
H            0.47882553098607       -2.61655838169193       -0.35334205233681
H            2.92891466076726       -2.93908770333721       -0.39986168737696
H            4.44034100572579       -0.97232210681699       -0.15383316050290
H            3.47476337483051        1.28391460184062        0.17470070345359
