 xtb: 6.7.1 (edcfbbe)
          04032521393D

  6  5  0     0  0            999 V2000
    1.2704    0.0000   -0.0000 C   0  0  0  0  0  0  0  0  0  0  0  0
   -0.1590   -0.0001    0.0000 C   0  0  0  0  0  0  0  0  0  0  0  0
   -1.3050    0.0000   -0.0000 N   0  0  0  0  0  0  0  0  0  0  0  0
    1.6307   -0.5326    0.8780 H   0  0  0  0  0  0  0  0  0  0  0  0
    1.6304    1.0269    0.0222 H   0  0  0  0  0  0  0  0  0  0  0  0
    1.6307   -0.4941   -0.9002 H   0  0  0  0  0  0  0  0  0  0  0  0
  1  2  1  0  0  0  0
  2  3  3  0  0  0  0
  1  4  1  0  0  0  0
  1  5  1  0  0  0  0
  1  6  1  0  0  0  0
M  END
