7
 xtb: 6.7.1 (edcfbbe)
C            0.73291661813929        0.00000109807617        0.00581847973208
N           -0.73861100366177        0.00000241305786       -0.09278502745953
H            1.13555538152968        0.88139794541447       -0.50174220845905
H            1.13554697418005       -0.88145469830801       -0.50164667318796
H            1.11778127382301        0.00005572448790        1.03604037693417
H           -1.08721214967889       -0.80396434010729        0.42088578446779
H           -1.08720523967125        0.80402429180340        0.42080459768657
