 xtb: 6.7.1 (edcfbbe)
          04032521543D

 24 24  0     0  0            999 V2000
   -2.9202   -0.0111   -0.0505 C   0  0  0  0  0  0  0  0  0  0  0  0
   -1.4442   -0.0238    0.3378 C   0  0  0  0  0  0  0  0  0  0  0  0
   -0.7321   -1.2400   -0.2555 C   0  0  0  0  0  0  0  0  0  0  0  0
    0.7448   -1.2524    0.1282 C   0  0  0  0  0  0  0  0  0  0  0  0
    1.4452    0.0237   -0.3399 C   0  0  0  0  0  0  0  0  0  0  0  0
    0.7332    1.2399    0.2533 C   0  0  0  0  0  0  0  0  0  0  0  0
   -0.7437    1.2523   -0.1303 C   0  0  0  0  0  0  0  0  0  0  0  0
    2.9213    0.0110    0.0484 C   0  0  0  0  0  0  0  0  0  0  0  0
   -3.4150   -0.9147    0.2983 H   0  0  0  0  0  0  0  0  0  0  0  0
   -3.4232    0.8481    0.3872 H   0  0  0  0  0  0  0  0  0  0  0  0
   -3.0270    0.0429   -1.1319 H   0  0  0  0  0  0  0  0  0  0  0  0
   -1.3707   -0.0783    1.4303 H   0  0  0  0  0  0  0  0  0  0  0  0
   -1.2119   -2.1561    0.0960 H   0  0  0  0  0  0  0  0  0  0  0  0
   -0.8236   -1.2121   -1.3442 H   0  0  0  0  0  0  0  0  0  0  0  0
    0.8366   -1.3329    1.2142 H   0  0  0  0  0  0  0  0  0  0  0  0
    1.2329   -2.1243   -0.3131 H   0  0  0  0  0  0  0  0  0  0  0  0
    1.3718    0.0782   -1.4324 H   0  0  0  0  0  0  0  0  0  0  0  0
    0.8249    1.2122    1.3420 H   0  0  0  0  0  0  0  0  0  0  0  0
    1.2130    2.1560   -0.0983 H   0  0  0  0  0  0  0  0  0  0  0  0
   -1.2317    2.1241    0.3111 H   0  0  0  0  0  0  0  0  0  0  0  0
   -0.8356    1.3329   -1.2163 H   0  0  0  0  0  0  0  0  0  0  0  0
    3.4242   -0.8485   -0.3887 H   0  0  0  0  0  0  0  0  0  0  0  0
    3.0281   -0.0423    1.1298 H   0  0  0  0  0  0  0  0  0  0  0  0
    3.4162    0.9143   -0.3009 H   0  0  0  0  0  0  0  0  0  0  0  0
  1  2  1  0  0  0  0
  2  3  1  0  0  0  0
  3  4  1  0  0  0  0
  4  5  1  0  0  0  0
  5  6  1  0  0  0  0
  2  7  1  0  0  0  0
  6  7  1  0  0  0  0
  5  8  1  0  0  0  0
  1  9  1  0  0  0  0
  1 10  1  0  0  0  0
  1 11  1  0  0  0  0
  2 12  1  0  0  0  0
  3 13  1  0  0  0  0
  3 14  1  0  0  0  0
  4 15  1  0  0  0  0
  4 16  1  0  0  0  0
  5 17  1  0  0  0  0
  6 18  1  0  0  0  0
  6 19  1  0  0  0  0
  7 20  1  0  0  0  0
  7 21  1  0  0  0  0
  8 22  1  0  0  0  0
  8 23  1  0  0  0  0
  8 24  1  0  0  0  0
M  END
