 xtb: 6.7.1 (edcfbbe)
          04062518003D

 24 24  0     0  0            999 V2000
   -2.5813   -0.6701   -0.2797 C   0  0  0  0  0  0  0  0  0  0  0  0
   -1.1870   -0.2882    0.2349 C   0  0  0  0  0  0  0  0  0  0  0  0
   -1.2023   -0.2388    1.3354 H   0  0  0  0  0  0  0  0  0  0  0  0
   -0.7135    1.0673   -0.3176 C   0  0  0  0  0  0  0  0  0  0  0  0
   -0.7109    1.0200   -1.4152 H   0  0  0  0  0  0  0  0  0  0  0  0
    0.7268    1.3503    0.1443 C   0  0  0  0  0  0  0  0  0  0  0  0
    0.7236    1.5121    1.2328 H   0  0  0  0  0  0  0  0  0  0  0  0
    1.6465    0.1680   -0.1613 C   0  0  0  0  0  0  0  0  0  0  0  0
    1.7970    0.1139   -1.2485 H   0  0  0  0  0  0  0  0  0  0  0  0
    1.0087   -1.1525    0.3078 C   0  0  0  0  0  0  0  0  0  0  0  0
    0.9839   -1.1449    1.4184 H   0  0  0  0  0  0  0  0  0  0  0  0
   -0.3020   -1.3162   -0.1795 O   0  0  0  0  0  0  0  0  0  0  0  0
    1.7918   -2.1805   -0.1752 O   0  0  0  0  0  0  0  0  0  0  0  0
    2.8629    0.3731    0.5064 O   0  0  0  0  0  0  0  0  0  0  0  0
    1.2383    2.4798   -0.5144 O   0  0  0  0  0  0  0  0  0  0  0  0
   -1.4949    2.1416    0.1459 O   0  0  0  0  0  0  0  0  0  0  0  0
   -3.0529   -1.8612    0.2913 O   0  0  0  0  0  0  0  0  0  0  0  0
   -2.5411   -0.7527   -1.3731 H   0  0  0  0  0  0  0  0  0  0  0  0
   -3.2980    0.0992    0.0097 H   0  0  0  0  0  0  0  0  0  0  0  0
    1.3943   -3.0396    0.0352 H   0  0  0  0  0  0  0  0  0  0  0  0
    3.4827   -0.3269    0.2518 H   0  0  0  0  0  0  0  0  0  0  0  0
    0.6769    3.2392   -0.2948 H   0  0  0  0  0  0  0  0  0  0  0  0
   -2.3199    2.2036   -0.3541 H   0  0  0  0  0  0  0  0  0  0  0  0
   -2.4368   -2.5738    0.0706 H   0  0  0  0  0  0  0  0  0  0  0  0
  1  2  1  0  0  0  0
  2  3  1  0  0  0  0
  2  4  1  0  0  0  0
  4  5  1  0  0  0  0
  4  6  1  0  0  0  0
  6  7  1  0  0  0  0
  6  8  1  0  0  0  0
  8  9  1  0  0  0  0
  8 10  1  0  0  0  0
 10 11  1  0  0  0  0
  2 12  1  0  0  0  0
 10 12  1  0  0  0  0
 10 13  1  0  0  0  0
  8 14  1  0  0  0  0
  6 15  1  0  0  0  0
  4 16  1  0  0  0  0
  1 17  1  0  0  0  0
  1 18  1  0  0  0  0
  1 19  1  0  0  0  0
 13 20  1  0  0  0  0
 14 21  1  0  0  0  0
 15 22  1  0  0  0  0
 16 23  1  0  0  0  0
 17 24  1  0  0  0  0
M  END
