 xtb: 6.7.1 (edcfbbe)
          04032521413D

 24 24  0     0  0            999 V2000
   -2.0886    0.3099    1.4018 C   0  0  0  0  0  0  0  0  0  0  0  0
   -1.5159   -0.0259    0.0189 C   0  0  0  0  0  0  0  0  0  0  0  0
   -2.0733   -1.3930   -0.3995 C   0  0  0  0  0  0  0  0  0  0  0  0
   -1.9766    1.0381   -0.9887 C   0  0  0  0  0  0  0  0  0  0  0  0
    0.0061   -0.0242    0.0254 C   0  0  0  0  0  0  0  0  0  0  0  0
    0.7266    0.7837    0.8998 C   0  0  0  0  0  0  0  0  0  0  0  0
    2.1101    0.8153    0.8768 C   0  0  0  0  0  0  0  0  0  0  0  0
    2.8129    0.0405   -0.0280 C   0  0  0  0  0  0  0  0  0  0  0  0
    2.1125   -0.7591   -0.9133 C   0  0  0  0  0  0  0  0  0  0  0  0
    0.7293   -0.7865   -0.8874 C   0  0  0  0  0  0  0  0  0  0  0  0
   -3.1668    0.1674    1.3961 H   0  0  0  0  0  0  0  0  0  0  0  0
   -1.6600   -0.3404    2.1611 H   0  0  0  0  0  0  0  0  0  0  0  0
   -1.8968    1.3439    1.6745 H   0  0  0  0  0  0  0  0  0  0  0  0
   -3.1527   -1.4055   -0.2661 H   0  0  0  0  0  0  0  0  0  0  0  0
   -1.8706   -1.6065   -1.4451 H   0  0  0  0  0  0  0  0  0  0  0  0
   -1.6418   -2.1835    0.2104 H   0  0  0  0  0  0  0  0  0  0  0  0
   -1.5978    0.8104   -1.9827 H   0  0  0  0  0  0  0  0  0  0  0  0
   -3.0629    1.0728   -1.0291 H   0  0  0  0  0  0  0  0  0  0  0  0
   -1.6068    2.0197   -0.7001 H   0  0  0  0  0  0  0  0  0  0  0  0
    0.2141    1.4053    1.6160 H   0  0  0  0  0  0  0  0  0  0  0  0
    2.6402    1.4512    1.5709 H   0  0  0  0  0  0  0  0  0  0  0  0
    3.8924    0.0623   -0.0456 H   0  0  0  0  0  0  0  0  0  0  0  0
    2.6446   -1.3662   -1.6313 H   0  0  0  0  0  0  0  0  0  0  0  0
    0.2178   -1.4165   -1.5972 H   0  0  0  0  0  0  0  0  0  0  0  0
  1  2  1  0  0  0  0
  2  3  1  0  0  0  0
  2  4  1  0  0  0  0
  2  5  1  0  0  0  0
  5  6  4  0  0  0  0
  6  7  4  0  0  0  0
  7  8  4  0  0  0  0
  8  9  4  0  0  0  0
  5 10  4  0  0  0  0
  9 10  4  0  0  0  0
  1 11  1  0  0  0  0
  1 12  1  0  0  0  0
  1 13  1  0  0  0  0
  3 14  1  0  0  0  0
  3 15  1  0  0  0  0
  3 16  1  0  0  0  0
  4 17  1  0  0  0  0
  4 18  1  0  0  0  0
  4 19  1  0  0  0  0
  6 20  1  0  0  0  0
  7 21  1  0  0  0  0
  8 22  1  0  0  0  0
  9 23  1  0  0  0  0
 10 24  1  0  0  0  0
M  END
