11
CONF1
C -2.9021063611 -0.0581768893 0.0020669198
O -1.6630325285 0.6638750976 0.0011648653
C -0.5459191365 -0.0437672365 -0.0014672468
O -0.5020252359 -1.2504330196 -0.0023198159
C 0.6529719979 0.8822372246 -0.0037748422
Cl 2.1607706234 -0.0662450259 0.0017744209
H -3.6776561542 0.7007276647 0.0033158162
H -2.9657231830 -0.6878001070 0.8896493067
H -2.9675444503 -0.6868045794 -0.8861061339
H 0.6398293994 1.5121519413 0.8852469563
H 0.6418540280 1.5043867259 -0.8983501533
11
CONF2
C -2.9208106948 -0.0361463784 0.0043886623
O -1.6604273274 0.6505402642 0.0005686304
C -0.5450943616 -0.0565758342 -0.0041776608
O -0.4861442471 -1.2630764297 -0.0057629508
C 0.6481077795 0.8783746832 -0.0079336497
Cl 2.1626139243 -0.0589668568 0.0052787207
H -2.7638153785 -1.1057083948 -0.1340468973
H -3.5117305681 0.3772096821 -0.8095434136
H -3.4045956135 0.1555045469 0.9604667037
H 0.6287928745 1.5126654161 0.8778056752
H 0.6348522338 1.4954898455 -0.9058785902
11
CONF5
C -2.4803273284 0.2339963170 0.0131907735
O -1.0519391803 0.3340923523 0.0038263307
C -0.3661187382 -0.7883220792 -0.0168434607
O -0.8617276736 -1.8939571072 -0.0270096561
C 1.1337336735 -0.5867423025 -0.0288710451
Cl 1.5960920920 1.1319131668 0.0230668004
H -2.8230655789 -0.2531515120 -0.8997745079
H -2.8425670208 1.2553390253 0.0720340757
H -2.8058840391 -0.3507742020 0.8736562617
H 1.5461819076 -1.0229946825 -0.9394769069
H 1.5701725308 -1.0845278759 0.8377716231
11
CONF3
C -2.4825021595 0.2587718035 -0.0044930908
O -1.0510817382 0.3199529689 0.0023256196
C -0.3633625209 -0.7991729968 0.0077878872
O -0.8411420081 -1.9132572445 0.0070871067
C 1.1353438841 -0.5842466855 0.0192461514
Cl 1.5854093361 1.1379162526 -0.0133370104
H -2.8278399603 0.7343109593 -0.9203803809
H -2.8344711741 0.8106283033 0.8645109763
H -2.8095933602 -0.7802195813 0.0369581632
H 1.5736012944 -1.0687004096 -0.8539412599
H 1.5524028775 -1.0281461399 0.9239515430
11
CONF6
C -2.6264350521 0.0238038124 -0.3683208096
O -1.3566237505 0.5504563304 0.0361635011
C -0.4535805695 -0.2898758481 0.4999144157
O -0.6190633242 -1.4824002422 0.6185193398
C 0.8403116887 0.4274231186 0.8275258398
Cl 1.8423967330 0.3343062626 -0.6563485134
H -3.2534241362 -0.1215048933 0.5111864825
H -2.4912928772 -0.9305017901 -0.8777479849
H -3.0576204270 0.7679045064 -1.0308948135
H 1.3810109821 -0.0833771517 1.6207691306
H 0.6668952713 1.4791158043 1.0418574343
11
CONF4
C -2.6282732060 0.0381183756 -0.3731690049
O -1.3514220525 0.5409687265 0.0410994117
C -0.4503286664 -0.3029852018 0.4995530515
O -0.6133016327 -1.4955152859 0.6240021533
C 0.8431155277 0.4141901249 0.8312363522
Cl 1.8358668975 0.3479159008 -0.6601260871
H -3.3708942089 0.7432729720 -0.0094394004
H -2.7904327442 -0.9553886622 0.0446185264
H -2.6466235583 -0.0065861734 -1.4612603003
H 1.3901617067 -0.1080259256 1.6127694942
H 0.6687525831 1.4617682178 1.0638355914
