 xtb: 6.7.1 (edcfbbe)
          04042521533D

 17 17  0     0  0            999 V2000
   -2.8307    1.0206    0.0002 C   0  0  0  0  0  0  0  0  0  0  0  0
   -2.2153   -0.2536   -0.0001 O   0  0  0  0  0  0  0  0  0  0  0  0
   -0.8525   -0.3261   -0.0001 C   0  0  0  0  0  0  0  0  0  0  0  0
   -0.3135   -1.6125   -0.0001 C   0  0  0  0  0  0  0  0  0  0  0  0
    1.0556   -1.7846    0.0001 C   0  0  0  0  0  0  0  0  0  0  0  0
    1.9063   -0.6942    0.0002 C   0  0  0  0  0  0  0  0  0  0  0  0
    1.3718    0.5885   -0.0000 C   0  0  0  0  0  0  0  0  0  0  0  0
   -0.0069    0.7758   -0.0002 C   0  0  0  0  0  0  0  0  0  0  0  0
    2.2335    1.6402   -0.0000 O   0  0  0  0  0  0  0  0  0  0  0  0
   -3.8998    0.8212   -0.0001 H   0  0  0  0  0  0  0  0  0  0  0  0
   -2.5638    1.5884   -0.8950 H   0  0  0  0  0  0  0  0  0  0  0  0
   -2.5641    1.5878    0.8959 H   0  0  0  0  0  0  0  0  0  0  0  0
   -0.9885   -2.4526   -0.0002 H   0  0  0  0  0  0  0  0  0  0  0  0
    1.4678   -2.7814    0.0003 H   0  0  0  0  0  0  0  0  0  0  0  0
    2.9774   -0.8127    0.0005 H   0  0  0  0  0  0  0  0  0  0  0  0
   -0.4025    1.7796   -0.0002 H   0  0  0  0  0  0  0  0  0  0  0  0
    1.7513    2.4810    0.0002 H   0  0  0  0  0  0  0  0  0  0  0  0
  1  2  1  0  0  0  0
  2  3  1  0  0  0  0
  3  4  4  0  0  0  0
  4  5  4  0  0  0  0
  5  6  4  0  0  0  0
  6  7  4  0  0  0  0
  3  8  4  0  0  0  0
  7  8  4  0  0  0  0
  7  9  1  0  0  0  0
  1 10  1  0  0  0  0
  1 11  1  0  0  0  0
  1 12  1  0  0  0  0
  4 13  1  0  0  0  0
  5 14  1  0  0  0  0
  6 15  1  0  0  0  0
  8 16  1  0  0  0  0
  9 17  1  0  0  0  0
M  END
