 xtb: 6.7.1 (edcfbbe)
          04042520023D

 16 16  0     0  0            999 V2000
   -2.7522   -0.8430    0.1437 C   0  0  0  0  0  0  0  0  0  0  0  0
   -1.9624    0.4314   -0.1205 C   0  0  0  0  0  0  0  0  0  0  0  0
   -0.4788    0.2310   -0.0567 C   0  0  0  0  0  0  0  0  0  0  0  0
    0.4032    1.2868   -0.3152 C   0  0  0  0  0  0  0  0  0  0  0  0
    1.7151    1.1421   -0.2650 N   0  0  0  0  0  0  0  0  0  0  0  0
    2.1769   -0.0654    0.0455 C   0  0  0  0  0  0  0  0  0  0  0  0
    1.3141   -1.1180    0.3032 C   0  0  0  0  0  0  0  0  0  0  0  0
   -0.0029   -0.9704    0.2524 N   0  0  0  0  0  0  0  0  0  0  0  0
   -2.5205   -1.2326    1.1304 H   0  0  0  0  0  0  0  0  0  0  0  0
   -2.4965   -1.6038   -0.5879 H   0  0  0  0  0  0  0  0  0  0  0  0
   -3.8178   -0.6396    0.0845 H   0  0  0  0  0  0  0  0  0  0  0  0
   -2.2326    1.1973    0.6114 H   0  0  0  0  0  0  0  0  0  0  0  0
   -2.2105    0.8296   -1.1078 H   0  0  0  0  0  0  0  0  0  0  0  0
    0.0414    2.2737   -0.5695 H   0  0  0  0  0  0  0  0  0  0  0  0
    3.2506   -0.1734    0.0840 H   0  0  0  0  0  0  0  0  0  0  0  0
    1.6722   -2.1056    0.5571 H   0  0  0  0  0  0  0  0  0  0  0  0
  1  2  1  0  0  0  0
  2  3  1  0  0  0  0
  3  4  4  0  0  0  0
  4  5  4  0  0  0  0
  5  6  4  0  0  0  0
  6  7  4  0  0  0  0
  3  8  4  0  0  0  0
  7  8  4  0  0  0  0
  1  9  1  0  0  0  0
  1 10  1  0  0  0  0
  1 11  1  0  0  0  0
  2 12  1  0  0  0  0
  2 13  1  0  0  0  0
  4 14  1  0  0  0  0
  6 15  1  0  0  0  0
  7 16  1  0  0  0  0
M  END
