 xtb: 6.7.1 (edcfbbe)
          04062518003D

 24 24  0     0  0            999 V2000
   -2.4223   -1.1000   -0.3615 C   0  0  0  0  0  0  0  0  0  0  0  0
   -1.0823   -0.6011    0.1979 C   0  0  0  0  0  0  0  0  0  0  0  0
   -1.1494   -0.5831    1.2973 H   0  0  0  0  0  0  0  0  0  0  0  0
   -0.7495    0.8158   -0.2964 C   0  0  0  0  0  0  0  0  0  0  0  0
   -0.7320    0.8041   -1.3995 H   0  0  0  0  0  0  0  0  0  0  0  0
    0.6432    1.2255    0.2178 C   0  0  0  0  0  0  0  0  0  0  0  0
    0.6066    1.2762    1.3138 H   0  0  0  0  0  0  0  0  0  0  0  0
    1.6701    0.1701   -0.2182 C   0  0  0  0  0  0  0  0  0  0  0  0
    1.7025    0.1269   -1.3139 H   0  0  0  0  0  0  0  0  0  0  0  0
    1.2017   -1.2102    0.3073 C   0  0  0  0  0  0  0  0  0  0  0  0
    1.1633   -1.1860    1.4101 H   0  0  0  0  0  0  0  0  0  0  0  0
   -0.0793   -1.5071   -0.2140 O   0  0  0  0  0  0  0  0  0  0  0  0
    2.0590   -2.2351   -0.0196 O   0  0  0  0  0  0  0  0  0  0  0  0
    2.9777    0.4804    0.1733 O   0  0  0  0  0  0  0  0  0  0  0  0
    0.9667    2.5288   -0.1998 O   0  0  0  0  0  0  0  0  0  0  0  0
   -1.7385    1.7045    0.1567 O   0  0  0  0  0  0  0  0  0  0  0  0
   -3.5214   -0.5088    0.2752 O   0  0  0  0  0  0  0  0  0  0  0  0
   -2.4935   -2.1748   -0.1826 H   0  0  0  0  0  0  0  0  0  0  0  0
   -2.4495   -0.9222   -1.4447 H   0  0  0  0  0  0  0  0  0  0  0  0
    2.0238   -2.4066   -0.9737 H   0  0  0  0  0  0  0  0  0  0  0  0
    3.0534    0.4842    1.1379 H   0  0  0  0  0  0  0  0  0  0  0  0
    1.3392    2.5130   -1.0931 H   0  0  0  0  0  0  0  0  0  0  0  0
   -1.3903    2.6090    0.0962 H   0  0  0  0  0  0  0  0  0  0  0  0
   -3.4086    0.4561    0.2509 H   0  0  0  0  0  0  0  0  0  0  0  0
  1  2  1  0  0  0  0
  2  3  1  0  0  0  0
  2  4  1  0  0  0  0
  4  5  1  0  0  0  0
  4  6  1  0  0  0  0
  6  7  1  0  0  0  0
  6  8  1  0  0  0  0
  8  9  1  0  0  0  0
  8 10  1  0  0  0  0
 10 11  1  0  0  0  0
  2 12  1  0  0  0  0
 10 12  1  0  0  0  0
 10 13  1  0  0  0  0
  8 14  1  0  0  0  0
  6 15  1  0  0  0  0
  4 16  1  0  0  0  0
  1 17  1  0  0  0  0
  1 18  1  0  0  0  0
  1 19  1  0  0  0  0
 13 20  1  0  0  0  0
 14 21  1  0  0  0  0
 15 22  1  0  0  0  0
 16 23  1  0  0  0  0
 17 24  1  0  0  0  0
M  END
