14
 xtb: 6.7.1 (edcfbbe)
C           -1.94385676673342       -1.24394739012102       -0.07706503714857
C           -1.49843928296477        0.20504950760943        0.07188870577551
C           -0.01962545176180        0.44483187305757        0.19297400110853
O            0.47007580893730        1.49954681577785        0.56794529330617
O            0.72324395511164       -0.61216935592363       -0.17790262269930
C            2.16173477560073       -0.42948548680388       -0.11545290356410
H           -3.03572633471395       -1.28794634255995       -0.11695093070711
H           -1.55500135054965       -1.69339899967006       -0.99403966341119
H           -1.61201912660188       -1.85012165446780        0.77065202008858
H           -1.95838921188798        0.67634832216004        0.94625647766042
H           -1.82172974035827        0.79898026610077       -0.79361577637400
H            2.58674807709225       -1.37086440149113       -0.46185480308081
H            2.47079888451749       -0.22665166976383        0.91281206999649
H            2.46657159528226        0.39126517186793       -0.76919601371911
