 xtb: 6.7.1 (edcfbbe)
          04062518003D

 24 24  0     0  0            999 V2000
   -2.4033   -0.7402   -0.0276 C   0  0  0  0  0  0  0  0  0  0  0  0
   -0.9858   -0.2990    0.3635 C   0  0  0  0  0  0  0  0  0  0  0  0
   -0.9761    0.0323    1.4154 H   0  0  0  0  0  0  0  0  0  0  0  0
   -0.5049    0.8626   -0.5214 C   0  0  0  0  0  0  0  0  0  0  0  0
   -0.4208    0.5135   -1.5557 H   0  0  0  0  0  0  0  0  0  0  0  0
    0.8797    1.3281   -0.0390 C   0  0  0  0  0  0  0  0  0  0  0  0
    0.7392    1.9762    0.8440 H   0  0  0  0  0  0  0  0  0  0  0  0
    1.7397    0.1451    0.4360 C   0  0  0  0  0  0  0  0  0  0  0  0
    2.7508    0.2987    0.0370 H   0  0  0  0  0  0  0  0  0  0  0  0
    1.2060   -1.1839   -0.1235 C   0  0  0  0  0  0  0  0  0  0  0  0
    1.7689   -2.0208    0.3215 H   0  0  0  0  0  0  0  0  0  0  0  0
   -0.1233   -1.4293    0.2544 O   0  0  0  0  0  0  0  0  0  0  0  0
    1.3703   -1.1679   -1.5069 O   0  0  0  0  0  0  0  0  0  0  0  0
    1.7227    0.1449    1.8406 O   0  0  0  0  0  0  0  0  0  0  0  0
    1.5830    2.0217   -1.0362 O   0  0  0  0  0  0  0  0  0  0  0  0
   -1.4173    1.9296   -0.5514 O   0  0  0  0  0  0  0  0  0  0  0  0
   -2.9849   -1.6414    0.8773 O   0  0  0  0  0  0  0  0  0  0  0  0
   -2.3593   -1.2674   -0.9821 H   0  0  0  0  0  0  0  0  0  0  0  0
   -3.0249    0.1563   -0.1459 H   0  0  0  0  0  0  0  0  0  0  0  0
    1.1210   -2.0282   -1.8788 H   0  0  0  0  0  0  0  0  0  0  0  0
    2.3616   -0.4959    2.1844 H   0  0  0  0  0  0  0  0  0  0  0  0
    0.9926    2.6757   -1.4402 H   0  0  0  0  0  0  0  0  0  0  0  0
   -1.5004    2.3147    0.3345 H   0  0  0  0  0  0  0  0  0  0  0  0
   -3.0273   -1.2390    1.7565 H   0  0  0  0  0  0  0  0  0  0  0  0
  1  2  1  0  0  0  0
  2  3  1  0  0  0  0
  2  4  1  0  0  0  0
  4  5  1  0  0  0  0
  4  6  1  0  0  0  0
  6  7  1  0  0  0  0
  6  8  1  0  0  0  0
  8  9  1  0  0  0  0
  8 10  1  0  0  0  0
 10 11  1  0  0  0  0
  2 12  1  0  0  0  0
 10 12  1  0  0  0  0
 10 13  1  0  0  0  0
  8 14  1  0  0  0  0
  6 15  1  0  0  0  0
  4 16  1  0  0  0  0
  1 17  1  0  0  0  0
  1 18  1  0  0  0  0
  1 19  1  0  0  0  0
 13 20  1  0  0  0  0
 14 21  1  0  0  0  0
 15 22  1  0  0  0  0
 16 23  1  0  0  0  0
 17 24  1  0  0  0  0
M  END
