 xtb: 6.7.1 (edcfbbe)
          04042519143D

 15 14  0     0  0            999 V2000
   -1.7449   -0.8167    0.0014 C   0  0  0  0  0  0  0  0  0  0  0  0
   -0.5028    0.0027   -0.3370 C   0  0  0  0  0  0  0  0  0  0  0  0
   -0.6580    1.4488    0.1277 C   0  0  0  0  0  0  0  0  0  0  0  0
    0.7382   -0.6313    0.3056 C   0  0  0  0  0  0  0  0  0  0  0  0
    1.9463   -0.0042   -0.0700 O   0  0  0  0  0  0  0  0  0  0  0  0
   -1.6472   -1.8356   -0.3658 H   0  0  0  0  0  0  0  0  0  0  0  0
   -2.6247   -0.3684   -0.4523 H   0  0  0  0  0  0  0  0  0  0  0  0
   -1.8917   -0.8516    1.0784 H   0  0  0  0  0  0  0  0  0  0  0  0
   -0.3629   -0.0030   -1.4246 H   0  0  0  0  0  0  0  0  0  0  0  0
    0.2697    1.9945   -0.0283 H   0  0  0  0  0  0  0  0  0  0  0  0
   -0.8964    1.4779    1.1886 H   0  0  0  0  0  0  0  0  0  0  0  0
   -1.4540    1.9449   -0.4214 H   0  0  0  0  0  0  0  0  0  0  0  0
    0.6865   -0.5297    1.3926 H   0  0  0  0  0  0  0  0  0  0  0  0
    0.7781   -1.7021    0.0616 H   0  0  0  0  0  0  0  0  0  0  0  0
    2.0638   -0.0979   -1.0254 H   0  0  0  0  0  0  0  0  0  0  0  0
  1  2  1  0  0  0  0
  2  3  1  0  0  0  0
  2  4  1  0  0  0  0
  4  5  1  0  0  0  0
  1  6  1  0  0  0  0
  1  7  1  0  0  0  0
  1  8  1  0  0  0  0
  2  9  1  0  0  0  0
  3 10  1  0  0  0  0
  3 11  1  0  0  0  0
  3 12  1  0  0  0  0
  4 13  1  0  0  0  0
  4 14  1  0  0  0  0
  5 15  1  0  0  0  0
M  END
