14
 xtb: 6.7.1 (edcfbbe)
C           -1.94078972805804       -1.24280656337768       -0.03891965281697
C           -1.50468432255439        0.21354655957204        0.03582701899565
C           -0.02512865257236        0.47956097728846        0.05311893648607
O            0.45953578482740        1.59733903970410        0.14924950586546
O            0.72157251218657       -0.63246457909197       -0.04763844365942
C            2.15902920209589       -0.43390240820706       -0.03892665154699
H           -3.03290030489239       -1.29704633118391       -0.04097249684257
H           -1.57761461393894       -1.72324093963980       -0.95105450916265
H           -1.57617375268000       -1.81388262492986        0.81897383381479
H           -1.90754317935328        0.70109406619573        0.93137026587781
H           -1.89834602446850        0.78515085260279       -0.81363331919723
H            2.45877656215791        0.18561782712407       -0.88729571354347
H            2.58780615323997       -1.43147041046770       -0.12600390646591
H            2.46894304820014        0.03510641570774        0.89774854268749
