14
 xtb: 6.7.1 (edcfbbe)
C           -1.86840671545858       -0.00000055547272        0.00112488694163
C           -1.15869015016161       -1.20060673237419       -0.00031151142743
C            0.23123498165603       -1.20740000540815       -0.00621850382340
C            0.94818262443890        0.00000230841580       -0.01272087858905
C            0.23123240931601        1.20740331680595       -0.00622106375881
C           -1.15869279463257        1.20060712563302       -0.00031458121206
N            2.33620010051059        0.00000392455595       -0.08592015140329
H           -2.95318299712256       -0.00000161094908        0.00642547770682
H           -1.69242467539319       -2.14654346590906        0.00608634448959
H            0.77461349271028       -2.14859269326870       -0.00603864466318
H            0.77460914617482        2.14859701013311       -0.00604281036461
H           -1.69242934419342        2.14654260658558        0.00608034783017
H            2.77516919313185       -0.83825165150585        0.26799776681122
H            2.77516692344732        0.83826277321143        0.26799239251244
