 xtb: 6.7.1 (edcfbbe)
          04062518003D

 24 24  0     0  0            999 V2000
   -2.5097   -1.0108    0.3890 C   0  0  0  0  0  0  0  0  0  0  0  0
   -1.0599   -0.5303    0.6019 C   0  0  0  0  0  0  0  0  0  0  0  0
   -0.8703   -0.4578    1.6853 H   0  0  0  0  0  0  0  0  0  0  0  0
   -0.7943    0.8360   -0.0616 C   0  0  0  0  0  0  0  0  0  0  0  0
   -0.9231    0.7058   -1.1438 H   0  0  0  0  0  0  0  0  0  0  0  0
    0.6583    1.2556    0.2186 C   0  0  0  0  0  0  0  0  0  0  0  0
    0.8135    1.3689    1.2990 H   0  0  0  0  0  0  0  0  0  0  0  0
    1.6017    0.1529   -0.2847 C   0  0  0  0  0  0  0  0  0  0  0  0
    1.5311    0.0814   -1.3815 H   0  0  0  0  0  0  0  0  0  0  0  0
    1.1741   -1.2108    0.2945 C   0  0  0  0  0  0  0  0  0  0  0  0
    1.3511   -1.1903    1.3928 H   0  0  0  0  0  0  0  0  0  0  0  0
   -0.1809   -1.4947    0.0514 O   0  0  0  0  0  0  0  0  0  0  0  0
    1.9420   -2.1847   -0.3140 O   0  0  0  0  0  0  0  0  0  0  0  0
    2.9106    0.4649    0.1110 O   0  0  0  0  0  0  0  0  0  0  0  0
    0.9543    2.5168   -0.3140 O   0  0  0  0  0  0  0  0  0  0  0  0
   -1.7297    1.8053    0.3321 O   0  0  0  0  0  0  0  0  0  0  0  0
   -3.0451   -0.6957   -0.8677 O   0  0  0  0  0  0  0  0  0  0  0  0
   -3.1326   -0.5953    1.1878 H   0  0  0  0  0  0  0  0  0  0  0  0
   -2.5121   -2.1003    0.4564 H   0  0  0  0  0  0  0  0  0  0  0  0
    1.5408   -3.0552   -0.1666 H   0  0  0  0  0  0  0  0  0  0  0  0
    3.5058   -0.2381   -0.1901 H   0  0  0  0  0  0  0  0  0  0  0  0
    0.9179    2.4902   -1.2811 H   0  0  0  0  0  0  0  0  0  0  0  0
   -1.4371    2.2439    1.1431 H   0  0  0  0  0  0  0  0  0  0  0  0
   -3.2145    0.2575   -0.9047 H   0  0  0  0  0  0  0  0  0  0  0  0
  1  2  1  0  0  0  0
  2  3  1  0  0  0  0
  2  4  1  0  0  0  0
  4  5  1  0  0  0  0
  4  6  1  0  0  0  0
  6  7  1  0  0  0  0
  6  8  1  0  0  0  0
  8  9  1  0  0  0  0
  8 10  1  0  0  0  0
 10 11  1  0  0  0  0
  2 12  1  0  0  0  0
 10 12  1  0  0  0  0
 10 13  1  0  0  0  0
  8 14  1  0  0  0  0
  6 15  1  0  0  0  0
  4 16  1  0  0  0  0
  1 17  1  0  0  0  0
  1 18  1  0  0  0  0
  1 19  1  0  0  0  0
 13 20  1  0  0  0  0
 14 21  1  0  0  0  0
 15 22  1  0  0  0  0
 16 23  1  0  0  0  0
 17 24  1  0  0  0  0
M  END
