25
 xtb: 6.7.1 (edcfbbe)
C           -4.28026010037879       -0.24755394121234       -0.08409608210048
C           -2.79325739903016       -0.04633952677006       -0.06844316649753
C           -1.96201931347905       -0.86648898416554        0.70034044930295
C           -0.58065259407221       -0.70712233550738        0.68334973883064
C            0.00284899896392        0.29693337000321       -0.09365714468904
C           -0.82281575390393        1.13889812294579       -0.84479627898306
C           -2.19934186435515        0.95835943814877       -0.84149581656997
C            1.46769489692712        0.58201749390825       -0.05950417639230
O            1.85706309040277        1.75861021968353        0.10865363276174
N            2.34002366127371       -0.44242748959376       -0.17438190576911
C            3.76941059627206       -0.16370203234045       -0.04020849433665
C            2.00923232693757       -1.76575449118652       -0.70299207521507
H           -4.80782709530191        0.70654105902764       -0.17042619059612
H           -4.57542517566397       -0.86096641989318       -0.94398956196904
H           -4.62151237069341       -0.75947041721403        0.81929663887448
H           -2.40296364695310       -1.63950041187624        1.32351829581325
H            0.04133355181695       -1.35586236387352        1.29212981432585
H           -0.37807026906520        1.93267046810043       -1.43702534378477
H           -2.82758403159895        1.61067441363217       -1.44179339892765
H            4.19347597766347        0.20885076432817       -0.98127701687793
H            4.27994166527466       -1.09058894354792        0.23215231273325
H            3.93865792933219        0.57913984149006        0.74062081065892
H            0.98105010349520       -1.79571877171412       -1.05984012965196
H            2.15022939315045       -2.54105884277853        0.05795809919265
H            2.67244493459840       -1.98434123942929       -1.54741750332991
