5
 xtb: 6.7.1 (edcfbbe)
C           -0.00025302305684        0.00013138047258       -0.00015759908627
Cl          -0.56273878671212       -0.00265937434711       -1.69682989040713
Cl          -0.70187771065752        1.40210686999080        0.85905533560378
Cl           1.78361315430924        0.11133515579868        0.03585595791522
Cl          -0.51871415251774       -1.51099306382223        0.80206554666130
