 xtb: 6.7.1 (edcfbbe)
          04062518003D

 24 24  0     0  0            999 V2000
   -2.5438   -0.9064    0.2924 C   0  0  0  0  0  0  0  0  0  0  0  0
   -1.1157   -0.4697    0.6277 C   0  0  0  0  0  0  0  0  0  0  0  0
   -1.0075   -0.4185    1.7249 H   0  0  0  0  0  0  0  0  0  0  0  0
   -0.8249    0.9272    0.0370 C   0  0  0  0  0  0  0  0  0  0  0  0
   -1.0641    0.9113   -1.0311 H   0  0  0  0  0  0  0  0  0  0  0  0
    0.6577    1.2740    0.2122 C   0  0  0  0  0  0  0  0  0  0  0  0
    0.8771    1.3881    1.2894 H   0  0  0  0  0  0  0  0  0  0  0  0
    1.5331    0.1352   -0.3200 C   0  0  0  0  0  0  0  0  0  0  0  0
    1.3723    0.0297   -1.4028 H   0  0  0  0  0  0  0  0  0  0  0  0
    1.1184   -1.1850    0.3461 C   0  0  0  0  0  0  0  0  0  0  0  0
    1.3059   -1.1058    1.4409 H   0  0  0  0  0  0  0  0  0  0  0  0
   -0.2397   -1.4582    0.1240 O   0  0  0  0  0  0  0  0  0  0  0  0
    1.8674   -2.2070   -0.2064 O   0  0  0  0  0  0  0  0  0  0  0  0
    2.8709    0.4572   -0.0367 O   0  0  0  0  0  0  0  0  0  0  0  0
    0.9249    2.4792   -0.4557 O   0  0  0  0  0  0  0  0  0  0  0  0
   -1.6703    1.8899    0.6070 O   0  0  0  0  0  0  0  0  0  0  0  0
   -2.7030   -0.9290   -1.1057 O   0  0  0  0  0  0  0  0  0  0  0  0
   -3.2283   -0.1848    0.7534 H   0  0  0  0  0  0  0  0  0  0  0  0
   -2.7062   -1.9042    0.7170 H   0  0  0  0  0  0  0  0  0  0  0  0
    1.4071   -3.0504   -0.0751 H   0  0  0  0  0  0  0  0  0  0  0  0
    3.4379   -0.2735   -0.3243 H   0  0  0  0  0  0  0  0  0  0  0  0
    1.8841    2.6213   -0.4546 H   0  0  0  0  0  0  0  0  0  0  0  0
   -1.3302    2.1602    1.4726 H   0  0  0  0  0  0  0  0  0  0  0  0
   -3.6138   -1.1794   -1.3150 H   0  0  0  0  0  0  0  0  0  0  0  0
  1  2  1  0  0  0  0
  2  3  1  0  0  0  0
  2  4  1  0  0  0  0
  4  5  1  0  0  0  0
  4  6  1  0  0  0  0
  6  7  1  0  0  0  0
  6  8  1  0  0  0  0
  8  9  1  0  0  0  0
  8 10  1  0  0  0  0
 10 11  1  0  0  0  0
  2 12  1  0  0  0  0
 10 12  1  0  0  0  0
 10 13  1  0  0  0  0
  8 14  1  0  0  0  0
  6 15  1  0  0  0  0
  4 16  1  0  0  0  0
  1 17  1  0  0  0  0
  1 18  1  0  0  0  0
  1 19  1  0  0  0  0
 13 20  1  0  0  0  0
 14 21  1  0  0  0  0
 15 22  1  0  0  0  0
 16 23  1  0  0  0  0
 17 24  1  0  0  0  0
M  END
