 xtb: 6.7.1 (edcfbbe)
          04032521533D

 13 13  0     0  0            999 V2000
   -1.8262   -1.3426    0.0000 C   0  0  0  0  0  0  0  0  0  0  0  0
   -0.4961   -1.7049    0.0000 C   0  0  0  0  0  0  0  0  0  0  0  0
    0.4926   -0.7316    0.0000 C   0  0  0  0  0  0  0  0  0  0  0  0
    0.1352    0.6092    0.0000 C   0  0  0  0  0  0  0  0  0  0  0  0
   -1.1978    0.9816   -0.0000 C   0  0  0  0  0  0  0  0  0  0  0  0
   -2.1905    0.0047   -0.0000 C   0  0  0  0  0  0  0  0  0  0  0  0
   -3.5007    0.3089   -0.0001 O   0  0  0  0  0  0  0  0  0  0  0  0
    1.3595    1.8379    0.0000 Cl  0  0  0  0  0  0  0  0  0  0  0  0
    2.1675   -1.1940    0.0001 Cl  0  0  0  0  0  0  0  0  0  0  0  0
   -2.6026   -2.0891   -0.0000 H   0  0  0  0  0  0  0  0  0  0  0  0
   -0.2128   -2.7441    0.0001 H   0  0  0  0  0  0  0  0  0  0  0  0
   -1.4486    2.0303   -0.0001 H   0  0  0  0  0  0  0  0  0  0  0  0
   -3.6450    1.2686   -0.0001 H   0  0  0  0  0  0  0  0  0  0  0  0
  1  2  4  0  0  0  0
  2  3  4  0  0  0  0
  3  4  4  0  0  0  0
  4  5  4  0  0  0  0
  1  6  4  0  0  0  0
  5  6  4  0  0  0  0
  6  7  1  0  0  0  0
  4  8  1  0  0  0  0
  3  9  1  0  0  0  0
  1 10  1  0  0  0  0
  2 11  1  0  0  0  0
  5 12  1  0  0  0  0
  7 13  1  0  0  0  0
M  END
