27
 xtb: 6.7.1 (edcfbbe)
C           -3.44061473325861        0.57705539721076       -0.09877033622315
C           -1.94707409441508        0.46812446096519       -0.02340639635100
C           -1.12221202852874        1.35416968957322       -0.59290629413886
C            0.37331525715927        1.25984321204506       -0.58698198281473
C            0.87283203555784       -0.13197514566989       -0.15795412698182
H            0.63466259611869       -0.82434563255213       -0.98045869197299
C            0.08324894574975       -0.57134708904115        1.07056775246388
C           -1.40380112553857       -0.70010988882806        0.75794352218107
H           -1.96206445837109       -0.76796509982756        1.70401693036400
O           -1.68291429658294       -1.90184616266828       -0.01422371098593
C            2.37592340709634       -0.14291333126832        0.00627631846654
C            2.98813695683404       -0.36486240223137        1.17429048588199
C            3.16258114478725        0.12940942163925       -1.24564279166637
H           -3.87861576696908        0.63845218783622        0.90543616725337
H           -3.87621823486446       -0.30833966850170       -0.57702768661498
H           -3.74894741233245        1.45868381651725       -0.66732066221709
H           -1.55068624568409        2.21309203037869       -1.10920794540236
H            0.74655276281535        1.51006005958924       -1.58656637284671
H            0.79111752767244        2.02213471991159        0.08964674662352
H            0.44438255395660       -1.53274140040909        1.45443801482229
H            0.20562498148927        0.16697758254177        1.87453988931194
H           -1.48976031011094       -2.65355844092107        0.56131250517710
H            4.07314514783797       -0.35895111232654        1.24075749341256
H            2.44129393701961       -0.55520224268855        2.09208302521173
H            3.01668114192694        1.16071132214766       -1.58857395920015
H            4.23264763688076       -0.02483033531585       -1.08569158589269
H            2.82987956169427       -0.52212031982864       -2.06275096620670
