 xtb: 6.7.1 (edcfbbe)
          04062518003D

 24 24  0     0  0            999 V2000
   -1.8720   -0.6001   -0.8599 C   0  0  0  0  0  0  0  0  0  0  0  0
   -1.1850   -0.1450    0.4380 C   0  0  0  0  0  0  0  0  0  0  0  0
   -1.9400   -0.1673    1.2347 H   0  0  0  0  0  0  0  0  0  0  0  0
   -0.6129    1.2774    0.3473 C   0  0  0  0  0  0  0  0  0  0  0  0
   -1.3569    1.9220   -0.1398 H   0  0  0  0  0  0  0  0  0  0  0  0
    0.6650    1.3116   -0.5042 C   0  0  0  0  0  0  0  0  0  0  0  0
    1.1180    2.3080   -0.3727 H   0  0  0  0  0  0  0  0  0  0  0  0
    1.6769    0.2851    0.0378 C   0  0  0  0  0  0  0  0  0  0  0  0
    2.4804    0.1394   -0.6933 H   0  0  0  0  0  0  0  0  0  0  0  0
    1.0412   -1.1037    0.2578 C   0  0  0  0  0  0  0  0  0  0  0  0
    1.6826   -1.6431    0.9725 H   0  0  0  0  0  0  0  0  0  0  0  0
   -0.2093   -1.0802    0.8998 O   0  0  0  0  0  0  0  0  0  0  0  0
    1.0064   -1.7597   -0.9739 O   0  0  0  0  0  0  0  0  0  0  0  0
    2.2938    0.7511    1.2085 O   0  0  0  0  0  0  0  0  0  0  0  0
    0.3029    1.0994   -1.8409 O   0  0  0  0  0  0  0  0  0  0  0  0
   -0.2693    1.7795    1.6189 O   0  0  0  0  0  0  0  0  0  0  0  0
   -2.8172   -1.6163   -0.6161 O   0  0  0  0  0  0  0  0  0  0  0  0
   -1.1206   -0.9205   -1.5874 H   0  0  0  0  0  0  0  0  0  0  0  0
   -2.4325    0.2332   -1.2855 H   0  0  0  0  0  0  0  0  0  0  0  0
    0.8516   -2.7073   -0.8467 H   0  0  0  0  0  0  0  0  0  0  0  0
    1.6047    1.0855    1.8095 H   0  0  0  0  0  0  0  0  0  0  0  0
    1.0864    1.1621   -2.4056 H   0  0  0  0  0  0  0  0  0  0  0  0
   -1.0603    1.8466    2.1732 H   0  0  0  0  0  0  0  0  0  0  0  0
   -2.3732   -2.3617   -0.1881 H   0  0  0  0  0  0  0  0  0  0  0  0
  1  2  1  0  0  0  0
  2  3  1  0  0  0  0
  2  4  1  0  0  0  0
  4  5  1  0  0  0  0
  4  6  1  0  0  0  0
  6  7  1  0  0  0  0
  6  8  1  0  0  0  0
  8  9  1  0  0  0  0
  8 10  1  0  0  0  0
 10 11  1  0  0  0  0
  2 12  1  0  0  0  0
 10 12  1  0  0  0  0
 10 13  1  0  0  0  0
  8 14  1  0  0  0  0
  6 15  1  0  0  0  0
  4 16  1  0  0  0  0
  1 17  1  0  0  0  0
  1 18  1  0  0  0  0
  1 19  1  0  0  0  0
 13 20  1  0  0  0  0
 14 21  1  0  0  0  0
 15 22  1  0  0  0  0
 16 23  1  0  0  0  0
 17 24  1  0  0  0  0
M  END
