 xtb: 6.7.1 (edcfbbe)
          04062519153D

 24 24  0     0  0            999 V2000
   -2.5647   -0.8705    0.2940 C   0  0  0  0  0  0  0  0  0  0  0  0
   -1.1352   -0.4253    0.6336 C   0  0  0  0  0  0  0  0  0  0  0  0
   -1.0289   -0.3374    1.7251 H   0  0  0  0  0  0  0  0  0  0  0  0
   -0.8222    0.9398    0.0087 C   0  0  0  0  0  0  0  0  0  0  0  0
   -1.0640    0.8921   -1.0660 H   0  0  0  0  0  0  0  0  0  0  0  0
    0.6680    1.2902    0.1777 C   0  0  0  0  0  0  0  0  0  0  0  0
    0.8770    1.4559    1.2413 H   0  0  0  0  0  0  0  0  0  0  0  0
    1.5434    0.1364   -0.3166 C   0  0  0  0  0  0  0  0  0  0  0  0
    1.4021    0.0024   -1.4015 H   0  0  0  0  0  0  0  0  0  0  0  0
    1.0961   -1.1670    0.3699 C   0  0  0  0  0  0  0  0  0  0  0  0
    1.2701   -1.0672    1.4619 H   0  0  0  0  0  0  0  0  0  0  0  0
   -0.2667   -1.4279    0.1382 O   0  0  0  0  0  0  0  0  0  0  0  0
    1.8355   -2.2012   -0.1679 O   0  0  0  0  0  0  0  0  0  0  0  0
    2.8842    0.4212   -0.0218 O   0  0  0  0  0  0  0  0  0  0  0  0
    0.9564    2.5156   -0.4456 O   0  0  0  0  0  0  0  0  0  0  0  0
   -1.6291    1.8984    0.6446 O   0  0  0  0  0  0  0  0  0  0  0  0
   -2.7400   -1.0792   -1.0820 O   0  0  0  0  0  0  0  0  0  0  0  0
   -3.2529   -0.0759    0.5846 H   0  0  0  0  0  0  0  0  0  0  0  0
   -2.7945   -1.7828    0.8569 H   0  0  0  0  0  0  0  0  0  0  0  0
    1.4845   -3.0536    0.1335 H   0  0  0  0  0  0  0  0  0  0  0  0
    3.4296   -0.3388   -0.2764 H   0  0  0  0  0  0  0  0  0  0  0  0
    1.0335    2.3929   -1.4031 H   0  0  0  0  0  0  0  0  0  0  0  0
   -1.2977    2.7791    0.4066 H   0  0  0  0  0  0  0  0  0  0  0  0
   -2.1134   -1.7615   -1.3656 H   0  0  0  0  0  0  0  0  0  0  0  0
  1  2  1  0  0  0  0
  2  3  1  0  0  0  0
  2  4  1  0  0  0  0
  4  5  1  0  0  0  0
  4  6  1  0  0  0  0
  6  7  1  0  0  0  0
  6  8  1  0  0  0  0
  8  9  1  0  0  0  0
  8 10  1  0  0  0  0
 10 11  1  0  0  0  0
  2 12  1  0  0  0  0
 10 12  1  0  0  0  0
 10 13  1  0  0  0  0
  8 14  1  0  0  0  0
  6 15  1  0  0  0  0
  4 16  1  0  0  0  0
  1 17  1  0  0  0  0
  1 18  1  0  0  0  0
  1 19  1  0  0  0  0
 13 20  1  0  0  0  0
 14 21  1  0  0  0  0
 15 22  1  0  0  0  0
 16 23  1  0  0  0  0
 17 24  1  0  0  0  0
M  END
