 xtb: 6.7.1 (edcfbbe)
          04062518003D

 24 24  0     0  0            999 V2000
   -2.3954   -1.1617   -0.2472 C   0  0  0  0  0  0  0  0  0  0  0  0
   -1.0560   -0.6088    0.2702 C   0  0  0  0  0  0  0  0  0  0  0  0
   -1.0695   -0.5447    1.3713 H   0  0  0  0  0  0  0  0  0  0  0  0
   -0.7717    0.7989   -0.2873 C   0  0  0  0  0  0  0  0  0  0  0  0
   -0.7855    0.7418   -1.3897 H   0  0  0  0  0  0  0  0  0  0  0  0
    0.6241    1.2410    0.1666 C   0  0  0  0  0  0  0  0  0  0  0  0
    0.6154    1.3662    1.2562 H   0  0  0  0  0  0  0  0  0  0  0  0
    1.6771    0.1791   -0.1993 C   0  0  0  0  0  0  0  0  0  0  0  0
    1.7894    0.1251   -1.2940 H   0  0  0  0  0  0  0  0  0  0  0  0
    1.2439   -1.2119    0.2830 C   0  0  0  0  0  0  0  0  0  0  0  0
    1.2834   -1.2178    1.3921 H   0  0  0  0  0  0  0  0  0  0  0  0
   -0.0655   -1.5266   -0.1434 O   0  0  0  0  0  0  0  0  0  0  0  0
    2.0924   -2.1495   -0.2606 O   0  0  0  0  0  0  0  0  0  0  0  0
    2.9069    0.4813    0.4045 O   0  0  0  0  0  0  0  0  0  0  0  0
    1.0082    2.4936   -0.3405 O   0  0  0  0  0  0  0  0  0  0  0  0
   -1.7036    1.7427    0.1703 O   0  0  0  0  0  0  0  0  0  0  0  0
   -3.4972   -0.3978    0.1734 O   0  0  0  0  0  0  0  0  0  0  0  0
   -2.4795   -2.2074    0.0625 H   0  0  0  0  0  0  0  0  0  0  0  0
   -2.3894   -1.1283   -1.3390 H   0  0  0  0  0  0  0  0  0  0  0  0
    1.7760   -3.0422   -0.0475 H   0  0  0  0  0  0  0  0  0  0  0  0
    3.0945    1.4217    0.2488 H   0  0  0  0  0  0  0  0  0  0  0  0
    0.7752    2.5593   -1.2779 H   0  0  0  0  0  0  0  0  0  0  0  0
   -2.6004    1.3888    0.0224 H   0  0  0  0  0  0  0  0  0  0  0  0
   -3.6940   -0.5849    1.1025 H   0  0  0  0  0  0  0  0  0  0  0  0
  1  2  1  0  0  0  0
  2  3  1  0  0  0  0
  2  4  1  0  0  0  0
  4  5  1  0  0  0  0
  4  6  1  0  0  0  0
  6  7  1  0  0  0  0
  6  8  1  0  0  0  0
  8  9  1  0  0  0  0
  8 10  1  0  0  0  0
 10 11  1  0  0  0  0
  2 12  1  0  0  0  0
 10 12  1  0  0  0  0
 10 13  1  0  0  0  0
  8 14  1  0  0  0  0
  6 15  1  0  0  0  0
  4 16  1  0  0  0  0
  1 17  1  0  0  0  0
  1 18  1  0  0  0  0
  1 19  1  0  0  0  0
 13 20  1  0  0  0  0
 14 21  1  0  0  0  0
 15 22  1  0  0  0  0
 16 23  1  0  0  0  0
 17 24  1  0  0  0  0
M  END
