15
 xtb: 6.7.1 (edcfbbe)
C           -2.93403704578502       -0.00004095712835       -0.01056214957767
C           -2.23924522093103        1.20729968311427       -0.00217193790901
C           -0.84847599052756        1.21286952061318        0.01722404070396
C           -0.15997661748217        0.00006525858352        0.03214854648868
C           -0.84839251929047       -1.21279756238303        0.01722349424458
C           -2.23915368991161       -1.20733673391925       -0.00217708256070
C            1.33712892175155        0.00003767386950        0.00658229420024
F            1.86826267892038        1.08931640027046        0.61344452900964
F            1.86822498182557       -1.08816043502240        0.61546049167723
F            1.82506352526229       -0.00117701728578       -1.26838252668399
H           -4.01925765067750       -0.00008010051720       -0.02241827810733
H           -2.78010915558799        2.14785547274542       -0.00853617287067
H           -0.30556780424221        2.15184346888983        0.02362957341438
H           -0.30539889354361       -2.15172831404265        0.02362773300506
H           -2.77995022499454       -2.14793151186770       -0.00855624922950
