 xtb: 6.7.1 (edcfbbe)
          04052502593D

 19 19  0     0  0            999 V2000
   -2.6300    1.3510    0.5074 C   0  0  0  0  0  0  0  0  0  0  0  0
   -1.9368    0.2663   -0.3121 C   0  0  0  0  0  0  0  0  0  0  0  0
   -0.4414    0.2247   -0.1387 C   0  0  0  0  0  0  0  0  0  0  0  0
    0.3271    1.3709   -0.0093 C   0  0  0  0  0  0  0  0  0  0  0  0
    1.7024    1.3086    0.1423 C   0  0  0  0  0  0  0  0  0  0  0  0
    2.3353    0.0801    0.1650 C   0  0  0  0  0  0  0  0  0  0  0  0
    1.5914   -1.0786    0.0312 C   0  0  0  0  0  0  0  0  0  0  0  0
    0.2129   -1.0141   -0.1234 C   0  0  0  0  0  0  0  0  0  0  0  0
   -0.5383   -2.1454   -0.2638 O   0  0  0  0  0  0  0  0  0  0  0  0
   -2.3813    2.3439    0.1427 H   0  0  0  0  0  0  0  0  0  0  0  0
   -2.3378    1.2822    1.5527 H   0  0  0  0  0  0  0  0  0  0  0  0
   -3.7083    1.2283    0.4404 H   0  0  0  0  0  0  0  0  0  0  0  0
   -2.1629    0.4139   -1.3727 H   0  0  0  0  0  0  0  0  0  0  0  0
   -2.3355   -0.7103   -0.0308 H   0  0  0  0  0  0  0  0  0  0  0  0
   -0.1564    2.3348   -0.0281 H   0  0  0  0  0  0  0  0  0  0  0  0
    2.2752    2.2178    0.2418 H   0  0  0  0  0  0  0  0  0  0  0  0
    3.4063    0.0179    0.2844 H   0  0  0  0  0  0  0  0  0  0  0  0
    2.0837   -2.0410    0.0459 H   0  0  0  0  0  0  0  0  0  0  0  0
    0.0285   -2.9295   -0.2188 H   0  0  0  0  0  0  0  0  0  0  0  0
  1  2  1  0  0  0  0
  2  3  1  0  0  0  0
  3  4  4  0  0  0  0
  4  5  4  0  0  0  0
  5  6  4  0  0  0  0
  6  7  4  0  0  0  0
  3  8  4  0  0  0  0
  7  8  4  0  0  0  0
  8  9  1  0  0  0  0
  1 10  1  0  0  0  0
  1 11  1  0  0  0  0
  1 12  1  0  0  0  0
  2 13  1  0  0  0  0
  2 14  1  0  0  0  0
  4 15  1  0  0  0  0
  5 16  1  0  0  0  0
  6 17  1  0  0  0  0
  7 18  1  0  0  0  0
  9 19  1  0  0  0  0
M  END
