 xtb: 6.7.1 (edcfbbe)
          04032522173D

 11 10  0     0  0            999 V2000
    1.6837   -1.0725    0.1554 C   0  0  0  0  0  0  0  0  0  0  0  0
    1.0398    0.2605   -0.2088 C   0  0  0  0  0  0  0  0  0  0  0  0
   -0.4614    0.3387   -0.0607 C   0  0  0  0  0  0  0  0  0  0  0  0
   -1.0599    1.3903   -0.1510 O   0  0  0  0  0  0  0  0  0  0  0  0
   -1.1345   -0.7826    0.1637 O   0  0  0  0  0  0  0  0  0  0  0  0
    2.7630   -0.9747    0.0774 H   0  0  0  0  0  0  0  0  0  0  0  0
    1.4513   -1.3540    1.1799 H   0  0  0  0  0  0  0  0  0  0  0  0
    1.3798   -1.8639   -0.5260 H   0  0  0  0  0  0  0  0  0  0  0  0
    1.4510    1.0689    0.3989 H   0  0  0  0  0  0  0  0  0  0  0  0
    1.2564    0.5174   -1.2489 H   0  0  0  0  0  0  0  0  0  0  0  0
   -0.5630   -1.5723    0.2135 H   0  0  0  0  0  0  0  0  0  0  0  0
  1  2  1  0  0  0  0
  2  3  1  0  0  0  0
  3  4  2  0  0  0  0
  3  5  1  0  0  0  0
  1  6  1  0  0  0  0
  1  7  1  0  0  0  0
  1  8  1  0  0  0  0
  2  9  1  0  0  0  0
  2 10  1  0  0  0  0
  5 11  1  0  0  0  0
M  END
