16
 xtb: 6.7.1 (edcfbbe)
C           -2.69076267781843       -0.96936048977243        0.00095769319817
S           -1.84210951962893        0.64330699205596       -0.00041517346466
C           -0.11867964168521        0.20589488494841       -0.00025696393582
C            0.80019592595990        1.26607161455902        0.00009326708538
C            2.16443832775044        1.00612757074354        0.00021795056810
C            2.63630338147700       -0.30685332554683        0.00001735704745
C            1.72315338273903       -1.35643563682427       -0.00035360675080
C            0.35070091677079       -1.11106572618048       -0.00050165043912
H           -2.45227064650563       -1.54403824273996        0.89930886049238
H           -2.45344185354051       -1.54507391352363       -0.89703395179374
H           -3.75935237509321       -0.73956911033433        0.00152179185334
H            0.44652845808984        2.29333036937229        0.00031540269349
H            2.86306783117500        1.83720469433982        0.00052752781455
H            3.70270903025527       -0.50641146425174        0.00015994376805
H            2.07423762155497       -2.38392694839458       -0.00054690173980
H           -0.33621071928704       -1.94890548163752       -0.00083166014770
