 xtb: 6.7.1 (edcfbbe)
          04062508313D

 24 24  0     0  0            999 V2000
   -3.5617    0.1536    0.0178 C   0  0  0  0  0  0  0  0  0  0  0  0
   -2.2603    0.4143   -0.5186 O   0  0  0  0  0  0  0  0  0  0  0  0
   -1.2113   -0.1985    0.0200 C   0  0  0  0  0  0  0  0  0  0  0  0
   -1.2949   -0.9788    0.9452 O   0  0  0  0  0  0  0  0  0  0  0  0
    0.0733    0.2378   -0.6432 C   0  0  0  0  0  0  0  0  0  0  0  0
    0.9980   -0.9649   -0.9027 C   0  0  0  0  0  0  0  0  0  0  0  0
    1.9409   -1.1894    0.2737 C   0  0  0  0  0  0  0  0  0  0  0  0
    2.9082   -0.0094    0.4240 C   0  0  0  0  0  0  0  0  0  0  0  0
    2.2493    1.3110    0.0054 C   0  0  0  0  0  0  0  0  0  0  0  0
    0.7509    1.2705    0.2812 C   0  0  0  0  0  0  0  0  0  0  0  0
   -4.0580   -0.5881   -0.6073 H   0  0  0  0  0  0  0  0  0  0  0  0
   -4.1019    1.0962   -0.0076 H   0  0  0  0  0  0  0  0  0  0  0  0
   -3.4737   -0.2224    1.0377 H   0  0  0  0  0  0  0  0  0  0  0  0
   -0.1948    0.7151   -1.5887 H   0  0  0  0  0  0  0  0  0  0  0  0
    0.3927   -1.8582   -1.0679 H   0  0  0  0  0  0  0  0  0  0  0  0
    1.5819   -0.7821   -1.8051 H   0  0  0  0  0  0  0  0  0  0  0  0
    1.3402   -1.3112    1.1763 H   0  0  0  0  0  0  0  0  0  0  0  0
    2.5019   -2.1130    0.1270 H   0  0  0  0  0  0  0  0  0  0  0  0
    3.2351    0.0513    1.4629 H   0  0  0  0  0  0  0  0  0  0  0  0
    3.7943   -0.1778   -0.1896 H   0  0  0  0  0  0  0  0  0  0  0  0
    2.7012    2.1407    0.5495 H   0  0  0  0  0  0  0  0  0  0  0  0
    2.4050    1.4894   -1.0593 H   0  0  0  0  0  0  0  0  0  0  0  0
    0.5844    0.9927    1.3242 H   0  0  0  0  0  0  0  0  0  0  0  0
    0.3009    2.2504    0.1186 H   0  0  0  0  0  0  0  0  0  0  0  0
  1  2  1  0  0  0  0
  2  3  1  0  0  0  0
  3  4  2  0  0  0  0
  3  5  1  0  0  0  0
  5  6  1  0  0  0  0
  6  7  1  0  0  0  0
  7  8  1  0  0  0  0
  8  9  1  0  0  0  0
  5 10  1  0  0  0  0
  9 10  1  0  0  0  0
  1 11  1  0  0  0  0
  1 12  1  0  0  0  0
  1 13  1  0  0  0  0
  5 14  1  0  0  0  0
  6 15  1  0  0  0  0
  6 16  1  0  0  0  0
  7 17  1  0  0  0  0
  7 18  1  0  0  0  0
  8 19  1  0  0  0  0
  8 20  1  0  0  0  0
  9 21  1  0  0  0  0
  9 22  1  0  0  0  0
 10 23  1  0  0  0  0
 10 24  1  0  0  0  0
M  END
