24
 xtb: 6.7.1 (edcfbbe)
C           -2.57422113337369       -0.88940105705166        0.32210679182878
C           -1.14480395913020       -0.45966804853111        0.55521741637537
H           -0.98188865215991       -0.42540089551614        1.64515505376466
C           -0.80899922046404        0.90949982362284       -0.04034694706948
H           -0.99243960312962        0.88888631889750       -1.12419033099628
C            0.65899405362403        1.22948286274696        0.20195009502527
H            0.82412540478379        1.33999027004454        1.28562869243491
C            1.54404890686360        0.10551025886731       -0.31726103046355
H            1.44572386507129        0.03253450799181       -1.41098134841537
C            1.09528288129435       -1.21930280954930        0.29162771605345
H            1.21204931451681       -1.20624288636863        1.38810230879206
O           -0.28176114670407       -1.44766465706305       -0.03394351077525
O            1.85106573451491       -2.24971521470446       -0.28724804181148
O            2.88915658310298        0.41698715641119        0.05281606282519
O            0.93767614617183        2.46757895580568       -0.46324468605374
O           -1.65680842108289        1.87324140474553        0.59121931818232
O           -2.86020641851649       -0.86219150931521       -1.08380703866840
H           -3.23933515124192       -0.21060498101530        0.87043680849286
H           -2.70443618171139       -1.90279814097844        0.72489288187108
H            1.80913527457518       -3.02131520825076        0.29350849174339
H            3.46870259454763       -0.20978842514076       -0.40033818574255
H            1.82793135211421        2.74214980235386       -0.20705125378561
H           -1.40526161951817        2.74162213973251        0.24868715112863
H           -3.77402837968441       -1.15189562053729       -1.19505613795741
