16
CONF1
C -1.4235169735 -1.2204276755 -0.0000738862
C -0.0503316905 -1.2193736146 -0.0000288577
C 0.6438236692 -0.0000107269 0.0001376033
C -0.0503280454 1.2193536689 0.0000279909
C -1.4235086868 1.2204194009 -0.0000146141
C -2.1441116175 -0.0000006851 -0.0000460053
N -3.4898653802 0.0000073513 -0.0000454300
N 2.0672265587 0.0000213011 0.0004455916
O 2.6726703002 1.0875488355 -0.0002743551
O 2.6727264457 -1.0875228128 -0.0002776395
H -1.9699863514 -2.1580847903 -0.0000830857
H 0.4962962528 -2.1540643309 -0.0000204455
H 0.4962978404 2.1540362841 0.0000826055
H -1.9699689478 2.1580798253 0.0000255223
H -4.0026788934 -0.8671810597 -0.0000669199
H -4.0026680546 0.8672020274 -0.0000271109
