 xtb: 6.7.1 (edcfbbe)
          04042521173D

 15 14  0     0  0            999 V2000
   -2.1879    0.3100    0.3052 C   0  0  0  0  0  0  0  0  0  0  0  0
   -1.0001    0.1650   -0.6474 C   0  0  0  0  0  0  0  0  0  0  0  0
    0.0045   -0.8024   -0.1018 C   0  0  0  0  0  0  0  0  0  0  0  0
    1.2599   -0.5613    0.2447 C   0  0  0  0  0  0  0  0  0  0  0  0
    2.0002    0.7339    0.1644 C   0  0  0  0  0  0  0  0  0  0  0  0
   -2.6634   -0.6542    0.4704 H   0  0  0  0  0  0  0  0  0  0  0  0
   -2.9255    0.9936   -0.1082 H   0  0  0  0  0  0  0  0  0  0  0  0
   -1.8548    0.6969    1.2656 H   0  0  0  0  0  0  0  0  0  0  0  0
   -1.3609   -0.2110   -1.6091 H   0  0  0  0  0  0  0  0  0  0  0  0
   -0.5512    1.1427   -0.8182 H   0  0  0  0  0  0  0  0  0  0  0  0
   -0.3824   -1.8062    0.0279 H   0  0  0  0  0  0  0  0  0  0  0  0
    1.8525   -1.3814    0.6332 H   0  0  0  0  0  0  0  0  0  0  0  0
    2.8539    0.6291   -0.5044 H   0  0  0  0  0  0  0  0  0  0  0  0
    2.3840    0.9979    1.1492 H   0  0  0  0  0  0  0  0  0  0  0  0
    1.3747    1.5450   -0.1941 H   0  0  0  0  0  0  0  0  0  0  0  0
  1  2  1  0  0  0  0
  2  3  1  0  0  0  0
  3  4  2  0  0  0  0
  4  5  1  0  0  0  0
  1  6  1  0  0  0  0
  1  7  1  0  0  0  0
  1  8  1  0  0  0  0
  2  9  1  0  0  0  0
  2 10  1  0  0  0  0
  3 11  1  0  0  0  0
  4 12  1  0  0  0  0
  5 13  1  0  0  0  0
  5 14  1  0  0  0  0
  5 15  1  0  0  0  0
M  END
