 xtb: 6.7.1 (edcfbbe)
          04062520053D

 27 27  0     0  0            999 V2000
   -2.5953    0.8822    1.4054 C   0  0  0  0  0  0  0  0  0  0  0  0
   -1.5545    0.4736    0.4143 C   0  0  0  0  0  0  0  0  0  0  0  0
   -0.8247    1.3219   -0.2988 C   0  0  0  0  0  0  0  0  0  0  0  0
    0.1990    0.8339   -1.2745 C   0  0  0  0  0  0  0  0  0  0  0  0
    1.0062   -0.3636   -0.7286 C   0  0  0  0  0  0  0  0  0  0  0  0
    1.4164   -0.9000   -1.5894 H   0  0  0  0  0  0  0  0  0  0  0  0
    0.1491   -1.3490    0.1000 C   0  0  0  0  0  0  0  0  0  0  0  0
   -1.3486   -1.0068    0.1955 C   0  0  0  0  0  0  0  0  0  0  0  0
   -1.7829   -1.5739    1.0270 H   0  0  0  0  0  0  0  0  0  0  0  0
   -2.0744   -1.4758   -0.9348 O   0  0  0  0  0  0  0  0  0  0  0  0
    2.1793    0.1187    0.0950 C   0  0  0  0  0  0  0  0  0  0  0  0
    3.4128   -0.2740   -0.1840 C   0  0  0  0  0  0  0  0  0  0  0  0
    1.8879    1.0543    1.2281 C   0  0  0  0  0  0  0  0  0  0  0  0
   -3.5549    0.4437    1.1340 H   0  0  0  0  0  0  0  0  0  0  0  0
   -2.6944    1.9637    1.4405 H   0  0  0  0  0  0  0  0  0  0  0  0
   -2.3332    0.5177    2.3982 H   0  0  0  0  0  0  0  0  0  0  0  0
   -0.9528    2.3894   -0.1918 H   0  0  0  0  0  0  0  0  0  0  0  0
   -0.2965    0.5326   -2.2026 H   0  0  0  0  0  0  0  0  0  0  0  0
    0.8907    1.6360   -1.5371 H   0  0  0  0  0  0  0  0  0  0  0  0
    0.2277   -2.3528   -0.3207 H   0  0  0  0  0  0  0  0  0  0  0  0
    0.5391   -1.3966    1.1173 H   0  0  0  0  0  0  0  0  0  0  0  0
   -1.7749   -0.9949   -1.7171 H   0  0  0  0  0  0  0  0  0  0  0  0
    4.2591    0.0503    0.3981 H   0  0  0  0  0  0  0  0  0  0  0  0
    3.6306   -0.9375   -1.0041 H   0  0  0  0  0  0  0  0  0  0  0  0
    1.0785    0.6758    1.8481 H   0  0  0  0  0  0  0  0  0  0  0  0
    2.7719    1.1943    1.8444 H   0  0  0  0  0  0  0  0  0  0  0  0
    1.5774    2.0247    0.8451 H   0  0  0  0  0  0  0  0  0  0  0  0
  1  2  1  0  0  0  0
  2  3  2  0  0  0  0
  3  4  1  0  0  0  0
  4  5  1  0  0  0  0
  5  6  1  0  0  0  0
  5  7  1  0  0  0  0
  2  8  1  0  0  0  0
  7  8  1  0  0  0  0
  8  9  1  0  0  0  0
  8 10  1  0  0  0  0
  5 11  1  0  0  0  0
 11 12  2  0  0  0  0
 11 13  1  0  0  0  0
  1 14  1  0  0  0  0
  1 15  1  0  0  0  0
  1 16  1  0  0  0  0
  3 17  1  0  0  0  0
  4 18  1  0  0  0  0
  4 19  1  0  0  0  0
  7 20  1  0  0  0  0
  7 21  1  0  0  0  0
 10 22  1  0  0  0  0
 12 23  1  0  0  0  0
 12 24  1  0  0  0  0
 13 25  1  0  0  0  0
 13 26  1  0  0  0  0
 13 27  1  0  0  0  0
M  END
