 xtb: 6.7.1 (edcfbbe)
          04032522173D

 12 11  0     0  0            999 V2000
   -1.9623   -0.2250    0.5000 C   0  0  0  0  0  0  0  0  0  0  0  0
   -1.1750   -0.1105   -0.7996 C   0  0  0  0  0  0  0  0  0  0  0  0
    0.1134    0.6849   -0.6475 C   0  0  0  0  0  0  0  0  0  0  0  0
    1.3803   -0.1625    0.3721 S   0  0  0  0  0  0  0  0  0  0  0  0
   -1.4070   -0.8005    1.2370 H   0  0  0  0  0  0  0  0  0  0  0  0
   -2.1708    0.7613    0.9089 H   0  0  0  0  0  0  0  0  0  0  0  0
   -2.9075   -0.7300    0.3200 H   0  0  0  0  0  0  0  0  0  0  0  0
   -1.7860    0.3940   -1.5518 H   0  0  0  0  0  0  0  0  0  0  0  0
   -0.9363   -1.1082   -1.1739 H   0  0  0  0  0  0  0  0  0  0  0  0
    0.5988    0.8182   -1.6142 H   0  0  0  0  0  0  0  0  0  0  0  0
   -0.0657    1.6611   -0.1999 H   0  0  0  0  0  0  0  0  0  0  0  0
    0.7856    0.0238    1.5436 H   0  0  0  0  0  0  0  0  0  0  0  0
  1  2  1  0  0  0  0
  2  3  1  0  0  0  0
  3  4  1  0  0  0  0
  1  5  1  0  0  0  0
  1  6  1  0  0  0  0
  1  7  1  0  0  0  0
  2  8  1  0  0  0  0
  2  9  1  0  0  0  0
  3 10  1  0  0  0  0
  3 11  1  0  0  0  0
  4 12  1  0  0  0  0
M  END
