 xtb: 6.7.1 (edcfbbe)
          04062520053D

 27 27  0     0  0            999 V2000
   -2.7818    0.8120    0.8008 C   0  0  0  0  0  0  0  0  0  0  0  0
   -1.5124    0.5164    0.0619 C   0  0  0  0  0  0  0  0  0  0  0  0
   -0.9010    1.4104   -0.7031 C   0  0  0  0  0  0  0  0  0  0  0  0
    0.3955    1.1925   -1.4191 C   0  0  0  0  0  0  0  0  0  0  0  0
    1.1494   -0.0453   -0.9242 C   0  0  0  0  0  0  0  0  0  0  0  0
    1.8657   -0.3450   -1.6980 H   0  0  0  0  0  0  0  0  0  0  0  0
    0.1390   -1.1873   -0.7585 C   0  0  0  0  0  0  0  0  0  0  0  0
   -0.9137   -0.8548    0.3009 C   0  0  0  0  0  0  0  0  0  0  0  0
   -0.4495   -0.8599    1.2973 H   0  0  0  0  0  0  0  0  0  0  0  0
   -1.8974   -1.8751    0.3745 O   0  0  0  0  0  0  0  0  0  0  0  0
    1.9362    0.1755    0.3481 C   0  0  0  0  0  0  0  0  0  0  0  0
    1.6625    1.1194    1.2345 C   0  0  0  0  0  0  0  0  0  0  0  0
    3.0857   -0.7697    0.5395 C   0  0  0  0  0  0  0  0  0  0  0  0
   -3.2100    1.7562    0.4763 H   0  0  0  0  0  0  0  0  0  0  0  0
   -2.5751    0.8663    1.8698 H   0  0  0  0  0  0  0  0  0  0  0  0
   -3.5077    0.0151    0.6536 H   0  0  0  0  0  0  0  0  0  0  0  0
   -1.3499    2.3857   -0.8434 H   0  0  0  0  0  0  0  0  0  0  0  0
    0.1862    1.0789   -2.4882 H   0  0  0  0  0  0  0  0  0  0  0  0
    1.0244    2.0791   -1.3106 H   0  0  0  0  0  0  0  0  0  0  0  0
   -0.3670   -1.3436   -1.7148 H   0  0  0  0  0  0  0  0  0  0  0  0
    0.6387   -2.1178   -0.4847 H   0  0  0  0  0  0  0  0  0  0  0  0
   -2.2907   -1.9854   -0.5025 H   0  0  0  0  0  0  0  0  0  0  0  0
    2.2525    1.2349    2.1287 H   0  0  0  0  0  0  0  0  0  0  0  0
    0.8428    1.8058    1.1183 H   0  0  0  0  0  0  0  0  0  0  0  0
    3.5714   -0.6031    1.4967 H   0  0  0  0  0  0  0  0  0  0  0  0
    2.7421   -1.8017    0.4976 H   0  0  0  0  0  0  0  0  0  0  0  0
    3.8200   -0.6323   -0.2535 H   0  0  0  0  0  0  0  0  0  0  0  0
  1  2  1  0  0  0  0
  2  3  2  0  0  0  0
  3  4  1  0  0  0  0
  4  5  1  0  0  0  0
  5  6  1  0  0  0  0
  5  7  1  0  0  0  0
  2  8  1  0  0  0  0
  7  8  1  0  0  0  0
  8  9  1  0  0  0  0
  8 10  1  0  0  0  0
  5 11  1  0  0  0  0
 11 12  2  0  0  0  0
 11 13  1  0  0  0  0
  1 14  1  0  0  0  0
  1 15  1  0  0  0  0
  1 16  1  0  0  0  0
  3 17  1  0  0  0  0
  4 18  1  0  0  0  0
  4 19  1  0  0  0  0
  7 20  1  0  0  0  0
  7 21  1  0  0  0  0
 10 22  1  0  0  0  0
 12 23  1  0  0  0  0
 12 24  1  0  0  0  0
 13 25  1  0  0  0  0
 13 26  1  0  0  0  0
 13 27  1  0  0  0  0
M  END
