 xtb: 6.7.1 (edcfbbe)
          04062518003D

 24 24  0     0  0            999 V2000
   -2.0586   -1.3946   -0.0955 C   0  0  0  0  0  0  0  0  0  0  0  0
   -1.0021   -0.5295    0.6079 C   0  0  0  0  0  0  0  0  0  0  0  0
   -1.4161   -0.1777    1.5612 H   0  0  0  0  0  0  0  0  0  0  0  0
   -0.6542    0.6998   -0.2408 C   0  0  0  0  0  0  0  0  0  0  0  0
   -0.5789    0.4146   -1.3026 H   0  0  0  0  0  0  0  0  0  0  0  0
    0.7059    1.2505    0.1999 C   0  0  0  0  0  0  0  0  0  0  0  0
    0.6833    1.4422    1.2838 H   0  0  0  0  0  0  0  0  0  0  0  0
    1.7956    0.2112   -0.0799 C   0  0  0  0  0  0  0  0  0  0  0  0
    2.1014    0.3338   -1.1255 H   0  0  0  0  0  0  0  0  0  0  0  0
    1.2399   -1.2264    0.0809 C   0  0  0  0  0  0  0  0  0  0  0  0
    2.0023   -1.8305    0.5925 H   0  0  0  0  0  0  0  0  0  0  0  0
    0.1394   -1.3064    0.9515 O   0  0  0  0  0  0  0  0  0  0  0  0
    0.9499   -1.7294   -1.1869 O   0  0  0  0  0  0  0  0  0  0  0  0
    2.8634    0.4395    0.8040 O   0  0  0  0  0  0  0  0  0  0  0  0
    1.0278    2.4259   -0.4971 O   0  0  0  0  0  0  0  0  0  0  0  0
   -1.6044    1.7236   -0.0795 O   0  0  0  0  0  0  0  0  0  0  0  0
   -3.2243   -0.6148   -0.2449 O   0  0  0  0  0  0  0  0  0  0  0  0
   -2.2474   -2.2804    0.5219 H   0  0  0  0  0  0  0  0  0  0  0  0
   -1.6711   -1.7066   -1.0733 H   0  0  0  0  0  0  0  0  0  0  0  0
    0.8462   -2.6931   -1.1500 H   0  0  0  0  0  0  0  0  0  0  0  0
    3.7004    0.1734    0.3986 H   0  0  0  0  0  0  0  0  0  0  0  0
    0.2626    3.0198   -0.4419 H   0  0  0  0  0  0  0  0  0  0  0  0
   -2.4863    1.3453   -0.2316 H   0  0  0  0  0  0  0  0  0  0  0  0
   -3.9215   -1.1512   -0.6478 H   0  0  0  0  0  0  0  0  0  0  0  0
  1  2  1  0  0  0  0
  2  3  1  0  0  0  0
  2  4  1  0  0  0  0
  4  5  1  0  0  0  0
  4  6  1  0  0  0  0
  6  7  1  0  0  0  0
  6  8  1  0  0  0  0
  8  9  1  0  0  0  0
  8 10  1  0  0  0  0
 10 11  1  0  0  0  0
  2 12  1  0  0  0  0
 10 12  1  0  0  0  0
 10 13  1  0  0  0  0
  8 14  1  0  0  0  0
  6 15  1  0  0  0  0
  4 16  1  0  0  0  0
  1 17  1  0  0  0  0
  1 18  1  0  0  0  0
  1 19  1  0  0  0  0
 13 20  1  0  0  0  0
 14 21  1  0  0  0  0
 15 22  1  0  0  0  0
 16 23  1  0  0  0  0
 17 24  1  0  0  0  0
M  END
