15
 xtb: 6.7.1 (edcfbbe)
C            1.33809277649667       -1.15836783604754        0.32456534721296
C            0.45887234981064       -0.16448557075408       -0.45077131103707
C            0.88997840595622        1.27278386283895       -0.17843877664234
C           -0.98892917041008       -0.43496943050512       -0.14968672194251
C           -1.88336081587935        0.43067545523792        0.32682199829265
H            1.24369865095794       -0.99057319677102        1.40343845755865
H            2.39093657226507       -1.03643430500373        0.04999317834479
H            1.04866121280261       -2.19332413740157        0.11454932900957
H            0.60391725388176       -0.37381161742933       -1.52176596400665
H            0.76584355162316        1.52429295509631        0.88103674176389
H            1.94620094497536        1.40434789369734       -0.43212688884188
H            0.30942742873913        1.98995237559408       -0.76770675232093
H           -1.30739119266590       -1.46110970689343       -0.33917456797429
H           -2.90759370665316        0.12219721278753        0.51895334547237
H           -1.63492600084332        1.46677151268755        0.53927942347552
