17
 xtb: 6.7.1 (edcfbbe)
C            1.82941691738636       -1.46732926821250       -0.00087438338014
C            0.53522047027703       -0.70334802394145        0.00163801403543
C           -0.67279657980905       -1.39953525485918        0.00183147984774
C           -1.87723999629772       -0.70894773819467        0.00058223825612
C           -1.83179203854324        0.67706954710793       -0.00006463849683
N           -0.68837784611887        1.37503501326641        0.00000623068335
C            0.47890522373557        0.70298632029375        0.00052067111963
C            1.72902955185233        1.53395193824105       -0.00055040460812
H            2.70314944359240       -0.81717808191605        0.03870182307836
H            1.87322787830074       -2.14760722393732        0.85634370224900
H            1.90765621436750       -2.08381583043493       -0.90318113649022
H           -0.66231596273271       -2.48649726855265        0.00294863194063
H           -2.82791845821622       -1.23133925885973        0.00057993793457
H           -2.75123947446669        1.25905670202761       -0.00087512381452
H            1.47433535355540        2.59459611064880       -0.00073015232685
H            2.34655019216845        1.32425264349783        0.87964755563639
H            2.34511474229521        1.32325937840502       -0.88158451150725
