 xtb: 6.7.1 (edcfbbe)
          04062518003D

 24 24  0     0  0            999 V2000
   -2.1908   -0.9996   -0.4447 C   0  0  0  0  0  0  0  0  0  0  0  0
   -1.1705   -0.2244    0.3969 C   0  0  0  0  0  0  0  0  0  0  0  0
   -1.6928    0.1786    1.2718 H   0  0  0  0  0  0  0  0  0  0  0  0
   -0.5922    0.9413   -0.4166 C   0  0  0  0  0  0  0  0  0  0  0  0
   -0.4442    0.6186   -1.4622 H   0  0  0  0  0  0  0  0  0  0  0  0
    0.7716    1.3216    0.1722 C   0  0  0  0  0  0  0  0  0  0  0  0
    0.6661    1.4927    1.2491 H   0  0  0  0  0  0  0  0  0  0  0  0
    1.7415    0.1572   -0.0586 C   0  0  0  0  0  0  0  0  0  0  0  0
    2.0545    0.1526   -1.1157 H   0  0  0  0  0  0  0  0  0  0  0  0
    1.0293   -1.1883    0.2004 C   0  0  0  0  0  0  0  0  0  0  0  0
    1.6830   -1.7840    0.8530 H   0  0  0  0  0  0  0  0  0  0  0  0
   -0.1524   -1.0578    0.9438 O   0  0  0  0  0  0  0  0  0  0  0  0
    0.8242   -1.8105   -1.0308 O   0  0  0  0  0  0  0  0  0  0  0  0
    2.8640    0.2207    0.7815 O   0  0  0  0  0  0  0  0  0  0  0  0
    1.2416    2.5331   -0.3629 O   0  0  0  0  0  0  0  0  0  0  0  0
   -1.4959    2.0153   -0.3844 O   0  0  0  0  0  0  0  0  0  0  0  0
   -2.8746   -1.9159    0.3779 O   0  0  0  0  0  0  0  0  0  0  0  0
   -1.6687   -1.5148   -1.2600 H   0  0  0  0  0  0  0  0  0  0  0  0
   -2.8812   -0.2573   -0.8654 H   0  0  0  0  0  0  0  0  0  0  0  0
    0.5809   -2.7388   -0.8923 H   0  0  0  0  0  0  0  0  0  0  0  0
    3.2606    1.1037    0.7178 H   0  0  0  0  0  0  0  0  0  0  0  0
    1.4117    2.4296   -1.3122 H   0  0  0  0  0  0  0  0  0  0  0  0
   -0.9862    2.8435   -0.4027 H   0  0  0  0  0  0  0  0  0  0  0  0
   -3.5449   -2.3748   -0.1480 H   0  0  0  0  0  0  0  0  0  0  0  0
  1  2  1  0  0  0  0
  2  3  1  0  0  0  0
  2  4  1  0  0  0  0
  4  5  1  0  0  0  0
  4  6  1  0  0  0  0
  6  7  1  0  0  0  0
  6  8  1  0  0  0  0
  8  9  1  0  0  0  0
  8 10  1  0  0  0  0
 10 11  1  0  0  0  0
  2 12  1  0  0  0  0
 10 12  1  0  0  0  0
 10 13  1  0  0  0  0
  8 14  1  0  0  0  0
  6 15  1  0  0  0  0
  4 16  1  0  0  0  0
  1 17  1  0  0  0  0
  1 18  1  0  0  0  0
  1 19  1  0  0  0  0
 13 20  1  0  0  0  0
 14 21  1  0  0  0  0
 15 22  1  0  0  0  0
 16 23  1  0  0  0  0
 17 24  1  0  0  0  0
M  END
