17
 xtb: 6.7.1 (edcfbbe)
C           -1.73549283129507        0.35037724314533       -0.58673473782224
C           -0.88389028538179        0.34323751170811        0.68204510077116
C            0.58445217592658       -0.07086559872404        0.48229527348460
C            0.71484780632446       -1.50624967875619       -0.03116587594519
C            1.33871912681469        0.89876968459160       -0.42988735977844
H           -2.76194303931094        0.65518714808641       -0.35754614878754
H           -1.78403974294787       -0.64144499369615       -1.04833344237397
H           -1.34569339657689        1.04950895789474       -1.33403656006942
H           -0.90429909281932        1.34429639638887        1.13282639128906
H           -1.33966615885173       -0.33597012666545        1.41467518976214
H            1.05750030815487       -0.02947203091844        1.47360343206102
H            0.33665605836651       -1.59874258113929       -1.05568000589473
H            0.15639096789952       -2.20852297604476        0.59851687539056
H            1.76386613930447       -1.82234823120912       -0.03975589110206
H            0.96819872826061        0.84542844480679       -1.45991683534400
H            2.40765097039189        0.65937037077318       -0.45339100848429
H            1.23259747380397        1.93457891835970       -0.08719464130367
