 xtb: 6.7.1 (edcfbbe)
          04062519153D

 24 24  0     0  0            999 V2000
   -2.5541   -0.6628   -0.3583 C   0  0  0  0  0  0  0  0  0  0  0  0
   -1.1707   -0.3111    0.2035 C   0  0  0  0  0  0  0  0  0  0  0  0
   -1.2197   -0.2496    1.3032 H   0  0  0  0  0  0  0  0  0  0  0  0
   -0.6930    1.0495   -0.3243 C   0  0  0  0  0  0  0  0  0  0  0  0
   -0.6831    1.0233   -1.4248 H   0  0  0  0  0  0  0  0  0  0  0  0
    0.7380    1.3202    0.1590 C   0  0  0  0  0  0  0  0  0  0  0  0
    0.7311    1.4294    1.2557 H   0  0  0  0  0  0  0  0  0  0  0  0
    1.6488    0.1430   -0.1987 C   0  0  0  0  0  0  0  0  0  0  0  0
    1.7232    0.0608   -1.2935 H   0  0  0  0  0  0  0  0  0  0  0  0
    1.0286   -1.1617    0.3277 C   0  0  0  0  0  0  0  0  0  0  0  0
    0.9975   -1.1157    1.4387 H   0  0  0  0  0  0  0  0  0  0  0  0
   -0.2737   -1.3381   -0.1701 O   0  0  0  0  0  0  0  0  0  0  0  0
    1.8099   -2.2165   -0.1031 O   0  0  0  0  0  0  0  0  0  0  0  0
    2.9085    0.3838    0.3731 O   0  0  0  0  0  0  0  0  0  0  0  0
    1.1704    2.5164   -0.4397 O   0  0  0  0  0  0  0  0  0  0  0  0
   -1.5790    2.0341    0.1371 O   0  0  0  0  0  0  0  0  0  0  0  0
   -3.1733   -1.7293    0.3097 O   0  0  0  0  0  0  0  0  0  0  0  0
   -2.4324   -0.9881   -1.3929 H   0  0  0  0  0  0  0  0  0  0  0  0
   -3.1706    0.2421   -0.3260 H   0  0  0  0  0  0  0  0  0  0  0  0
    1.3039   -3.0413   -0.0372 H   0  0  0  0  0  0  0  0  0  0  0  0
    3.4827   -0.3776    0.2033 H   0  0  0  0  0  0  0  0  0  0  0  0
    2.1044    2.6510   -0.2210 H   0  0  0  0  0  0  0  0  0  0  0  0
   -1.2212    2.9018   -0.1076 H   0  0  0  0  0  0  0  0  0  0  0  0
   -3.3873   -1.4649    1.2159 H   0  0  0  0  0  0  0  0  0  0  0  0
  1  2  1  0  0  0  0
  2  3  1  0  0  0  0
  2  4  1  0  0  0  0
  4  5  1  0  0  0  0
  4  6  1  0  0  0  0
  6  7  1  0  0  0  0
  6  8  1  0  0  0  0
  8  9  1  0  0  0  0
  8 10  1  0  0  0  0
 10 11  1  0  0  0  0
  2 12  1  0  0  0  0
 10 12  1  0  0  0  0
 10 13  1  0  0  0  0
  8 14  1  0  0  0  0
  6 15  1  0  0  0  0
  4 16  1  0  0  0  0
  1 17  1  0  0  0  0
  1 18  1  0  0  0  0
  1 19  1  0  0  0  0
 13 20  1  0  0  0  0
 14 21  1  0  0  0  0
 15 22  1  0  0  0  0
 16 23  1  0  0  0  0
 17 24  1  0  0  0  0
M  END
