 xtb: 6.7.1 (edcfbbe)
          04032521143D

 20 20  0     0  0            999 V2000
   -2.3392   -0.0258    0.2048 C   0  0  0  0  0  0  0  0  0  0  0  0
   -0.8968   -0.0286    0.2791 N   0  0  0  0  0  0  0  0  0  0  0  0
   -0.3456    1.2573   -0.1235 C   0  0  0  0  0  0  0  0  0  0  0  0
    1.1737    1.1754   -0.3136 C   0  0  0  0  0  0  0  0  0  0  0  0
    1.7243    0.0201    0.5127 C   0  0  0  0  0  0  0  0  0  0  0  0
    1.1681   -1.2961   -0.0347 C   0  0  0  0  0  0  0  0  0  0  0  0
   -0.2926   -1.1117   -0.4750 C   0  0  0  0  0  0  0  0  0  0  0  0
   -2.7200   -0.9712    0.5872 H   0  0  0  0  0  0  0  0  0  0  0  0
   -2.7143    0.1167   -0.8229 H   0  0  0  0  0  0  0  0  0  0  0  0
   -2.7223    0.7830    0.8256 H   0  0  0  0  0  0  0  0  0  0  0  0
   -0.8179    1.6178   -1.0571 H   0  0  0  0  0  0  0  0  0  0  0  0
   -0.5903    1.9710    0.6691 H   0  0  0  0  0  0  0  0  0  0  0  0
    1.4136    1.0056   -1.3652 H   0  0  0  0  0  0  0  0  0  0  0  0
    1.6317    2.1186   -0.0158 H   0  0  0  0  0  0  0  0  0  0  0  0
    2.8141    0.0097    0.4819 H   0  0  0  0  0  0  0  0  0  0  0  0
    1.4089    0.1481    1.5481 H   0  0  0  0  0  0  0  0  0  0  0  0
    1.7602   -1.6272   -0.8892 H   0  0  0  0  0  0  0  0  0  0  0  0
    1.2312   -2.0644    0.7355 H   0  0  0  0  0  0  0  0  0  0  0  0
   -0.3458   -0.9153   -1.5620 H   0  0  0  0  0  0  0  0  0  0  0  0
   -0.8596   -2.0243   -0.2812 H   0  0  0  0  0  0  0  0  0  0  0  0
  1  2  1  0  0  0  0
  2  3  1  0  0  0  0
  3  4  1  0  0  0  0
  4  5  1  0  0  0  0
  5  6  1  0  0  0  0
  2  7  1  0  0  0  0
  6  7  1  0  0  0  0
  1  8  1  0  0  0  0
  1  9  1  0  0  0  0
  1 10  1  0  0  0  0
  3 11  1  0  0  0  0
  3 12  1  0  0  0  0
  4 13  1  0  0  0  0
  4 14  1  0  0  0  0
  5 15  1  0  0  0  0
  5 16  1  0  0  0  0
  6 17  1  0  0  0  0
  6 18  1  0  0  0  0
  7 19  1  0  0  0  0
  7 20  1  0  0  0  0
M  END
