 xtb: 6.7.1 (edcfbbe)
          04052503093D

 19 19  0     0  0            999 V2000
   -3.7682    0.9161   -0.0275 C   0  0  0  0  0  0  0  0  0  0  0  0
   -2.3405    0.9123   -0.0296 O   0  0  0  0  0  0  0  0  0  0  0  0
   -1.7168   -0.2678    0.0125 C   0  0  0  0  0  0  0  0  0  0  0  0
   -2.3175   -1.3297    0.0459 O   0  0  0  0  0  0  0  0  0  0  0  0
   -0.2526   -0.1453    0.0061 C   0  0  0  0  0  0  0  0  0  0  0  0
    0.3846    1.0976   -0.0191 C   0  0  0  0  0  0  0  0  0  0  0  0
    1.7583    1.1712   -0.0233 C   0  0  0  0  0  0  0  0  0  0  0  0
    2.5278    0.0047   -0.0030 C   0  0  0  0  0  0  0  0  0  0  0  0
    1.8939   -1.2378    0.0221 C   0  0  0  0  0  0  0  0  0  0  0  0
    0.5182   -1.3082    0.0271 C   0  0  0  0  0  0  0  0  0  0  0  0
    3.8677    0.1337   -0.0083 O   0  0  0  0  0  0  0  0  0  0  0  0
   -4.0687    1.8162   -0.5564 H   0  0  0  0  0  0  0  0  0  0  0  0
   -4.1281    0.9371    1.0017 H   0  0  0  0  0  0  0  0  0  0  0  0
   -4.1454    0.0214   -0.5250 H   0  0  0  0  0  0  0  0  0  0  0  0
   -0.2098    1.9966   -0.0347 H   0  0  0  0  0  0  0  0  0  0  0  0
    2.2672    2.1213   -0.0422 H   0  0  0  0  0  0  0  0  0  0  0  0
    2.4795   -2.1446    0.0378 H   0  0  0  0  0  0  0  0  0  0  0  0
    0.0113   -2.2610    0.0467 H   0  0  0  0  0  0  0  0  0  0  0  0
    4.3080   -0.7311    0.0074 H   0  0  0  0  0  0  0  0  0  0  0  0
  1  2  1  0  0  0  0
  2  3  1  0  0  0  0
  3  4  2  0  0  0  0
  3  5  1  0  0  0  0
  5  6  4  0  0  0  0
  6  7  4  0  0  0  0
  7  8  4  0  0  0  0
  8  9  4  0  0  0  0
  5 10  4  0  0  0  0
  9 10  4  0  0  0  0
  8 11  1  0  0  0  0
  1 12  1  0  0  0  0
  1 13  1  0  0  0  0
  1 14  1  0  0  0  0
  6 15  1  0  0  0  0
  7 16  1  0  0  0  0
  9 17  1  0  0  0  0
 10 18  1  0  0  0  0
 11 19  1  0  0  0  0
M  END
