 xtb: 6.7.1 (edcfbbe)
          04062505073D

 29 29  0     0  0            999 V2000
   -2.6063   -0.7402    1.3023 C   0  0  0  0  0  0  0  0  0  0  0  0
   -2.3571   -0.0617   -0.0434 C   0  0  0  0  0  0  0  0  0  0  0  0
   -3.3367    0.1748   -0.4717 H   0  0  0  0  0  0  0  0  0  0  0  0
   -1.6222   -0.9727   -1.0295 C   0  0  0  0  0  0  0  0  0  0  0  0
   -0.2181   -1.3517   -0.5512 C   0  0  0  0  0  0  0  0  0  0  0  0
    0.5022   -0.1902    0.1735 C   0  0  0  0  0  0  0  0  0  0  0  0
    0.2791   -0.2526    1.2427 H   0  0  0  0  0  0  0  0  0  0  0  0
   -0.1206    1.0927   -0.3201 C   0  0  0  0  0  0  0  0  0  0  0  0
    0.4592    1.9217   -0.9940 O   0  0  0  0  0  0  0  0  0  0  0  0
   -1.5645    1.2552    0.0804 C   0  0  0  0  0  0  0  0  0  0  0  0
    2.0291   -0.2268    0.0026 C   0  0  0  0  0  0  0  0  0  0  0  0
    2.6817    0.8674    0.8487 C   0  0  0  0  0  0  0  0  0  0  0  0
    2.6017   -1.5848    0.4058 C   0  0  0  0  0  0  0  0  0  0  0  0
   -3.1648   -1.6610    1.1522 H   0  0  0  0  0  0  0  0  0  0  0  0
   -1.6800   -0.9830    1.8124 H   0  0  0  0  0  0  0  0  0  0  0  0
   -3.1926   -0.0892    1.9463 H   0  0  0  0  0  0  0  0  0  0  0  0
   -2.2013   -1.8806   -1.2026 H   0  0  0  0  0  0  0  0  0  0  0  0
   -1.5450   -0.4409   -1.9820 H   0  0  0  0  0  0  0  0  0  0  0  0
   -0.2722   -2.2090    0.1186 H   0  0  0  0  0  0  0  0  0  0  0  0
    0.3728   -1.6419   -1.4211 H   0  0  0  0  0  0  0  0  0  0  0  0
   -1.5758    1.6095    1.1132 H   0  0  0  0  0  0  0  0  0  0  0  0
   -1.9997    2.0398   -0.5411 H   0  0  0  0  0  0  0  0  0  0  0  0
    2.2599   -0.0328   -1.0509 H   0  0  0  0  0  0  0  0  0  0  0  0
    2.3213    1.8497    0.5538 H   0  0  0  0  0  0  0  0  0  0  0  0
    3.7608    0.8499    0.7180 H   0  0  0  0  0  0  0  0  0  0  0  0
    2.4607    0.7155    1.9034 H   0  0  0  0  0  0  0  0  0  0  0  0
    2.3351   -1.8141    1.4352 H   0  0  0  0  0  0  0  0  0  0  0  0
    3.6860   -1.5634    0.3313 H   0  0  0  0  0  0  0  0  0  0  0  0
    2.2352   -2.3814   -0.2343 H   0  0  0  0  0  0  0  0  0  0  0  0
  1  2  1  0  0  0  0
  2  3  1  0  0  0  0
  2  4  1  0  0  0  0
  4  5  1  0  0  0  0
  5  6  1  0  0  0  0
  6  7  1  0  0  0  0
  6  8  1  0  0  0  0
  8  9  2  0  0  0  0
  2 10  1  0  0  0  0
  8 10  1  0  0  0  0
  6 11  1  0  0  0  0
 11 12  1  0  0  0  0
 11 13  1  0  0  0  0
  1 14  1  0  0  0  0
  1 15  1  0  0  0  0
  1 16  1  0  0  0  0
  4 17  1  0  0  0  0
  4 18  1  0  0  0  0
  5 19  1  0  0  0  0
  5 20  1  0  0  0  0
 10 21  1  0  0  0  0
 10 22  1  0  0  0  0
 11 23  1  0  0  0  0
 12 24  1  0  0  0  0
 12 25  1  0  0  0  0
 12 26  1  0  0  0  0
 13 27  1  0  0  0  0
 13 28  1  0  0  0  0
 13 29  1  0  0  0  0
M  END
