 xtb: 6.7.1 (edcfbbe)
          04032520533D

 19 19  0     0  0            999 V2000
   -3.0800    0.4092   -0.0045 C   0  0  0  0  0  0  0  0  0  0  0  0
   -1.6225    0.0569    0.0030 C   0  0  0  0  0  0  0  0  0  0  0  0
   -1.1962   -1.2622    0.0018 C   0  0  0  0  0  0  0  0  0  0  0  0
    0.1532   -1.5677    0.0006 C   0  0  0  0  0  0  0  0  0  0  0  0
    1.1056   -0.5579   -0.0003 C   0  0  0  0  0  0  0  0  0  0  0  0
    0.6988    0.7802    0.0018 C   0  0  0  0  0  0  0  0  0  0  0  0
   -0.6585    1.0576    0.0033 C   0  0  0  0  0  0  0  0  0  0  0  0
    1.7060    1.8919   -0.0009 C   0  0  0  0  0  0  0  0  0  0  0  0
    2.4445   -0.8376   -0.0017 O   0  0  0  0  0  0  0  0  0  0  0  0
   -3.6933   -0.4795    0.1180 H   0  0  0  0  0  0  0  0  0  0  0  0
   -3.3074    1.1067    0.7993 H   0  0  0  0  0  0  0  0  0  0  0  0
   -3.3468    0.8870   -0.9463 H   0  0  0  0  0  0  0  0  0  0  0  0
   -1.9203   -2.0637    0.0025 H   0  0  0  0  0  0  0  0  0  0  0  0
    0.4690   -2.6017    0.0005 H   0  0  0  0  0  0  0  0  0  0  0  0
   -0.9720    2.0920    0.0055 H   0  0  0  0  0  0  0  0  0  0  0  0
    1.5277    2.5659    0.8349 H   0  0  0  0  0  0  0  0  0  0  0  0
    2.7114    1.4885    0.0763 H   0  0  0  0  0  0  0  0  0  0  0  0
    1.6284    2.4676   -0.9219 H   0  0  0  0  0  0  0  0  0  0  0  0
    2.5819   -1.7958    0.0008 H   0  0  0  0  0  0  0  0  0  0  0  0
  1  2  1  0  0  0  0
  2  3  4  0  0  0  0
  3  4  4  0  0  0  0
  4  5  4  0  0  0  0
  5  6  4  0  0  0  0
  2  7  4  0  0  0  0
  6  7  4  0  0  0  0
  6  8  1  0  0  0  0
  5  9  1  0  0  0  0
  1 10  1  0  0  0  0
  1 11  1  0  0  0  0
  1 12  1  0  0  0  0
  3 13  1  0  0  0  0
  4 14  1  0  0  0  0
  7 15  1  0  0  0  0
  8 16  1  0  0  0  0
  8 17  1  0  0  0  0
  8 18  1  0  0  0  0
  9 19  1  0  0  0  0
M  END
