 xtb: 6.7.1 (edcfbbe)
          04062508313D

 24 24  0     0  0            999 V2000
   -3.0586    0.7222    0.6129 C   0  0  0  0  0  0  0  0  0  0  0  0
   -1.8554    0.7076   -0.1603 O   0  0  0  0  0  0  0  0  0  0  0  0
   -1.0697   -0.3629   -0.1110 C   0  0  0  0  0  0  0  0  0  0  0  0
   -1.3192   -1.3413    0.5621 O   0  0  0  0  0  0  0  0  0  0  0  0
    0.1269   -0.2215   -1.0311 C   0  0  0  0  0  0  0  0  0  0  0  0
    1.1672   -1.3094   -0.7548 C   0  0  0  0  0  0  0  0  0  0  0  0
    1.8593   -1.0842    0.5875 C   0  0  0  0  0  0  0  0  0  0  0  0
    2.4888    0.3041    0.6477 C   0  0  0  0  0  0  0  0  0  0  0  0
    1.4287    1.3760    0.4142 C   0  0  0  0  0  0  0  0  0  0  0  0
    0.7581    1.1726   -0.9413 C   0  0  0  0  0  0  0  0  0  0  0  0
   -3.0675    1.6506    1.1798 H   0  0  0  0  0  0  0  0  0  0  0  0
   -3.0814   -0.1398    1.2807 H   0  0  0  0  0  0  0  0  0  0  0  0
   -3.9036    0.6892   -0.0732 H   0  0  0  0  0  0  0  0  0  0  0  0
   -0.2772   -0.3584   -2.0417 H   0  0  0  0  0  0  0  0  0  0  0  0
    0.6779   -2.2849   -0.7542 H   0  0  0  0  0  0  0  0  0  0  0  0
    1.9089   -1.2943   -1.5547 H   0  0  0  0  0  0  0  0  0  0  0  0
    1.1244   -1.1900    1.3886 H   0  0  0  0  0  0  0  0  0  0  0  0
    2.6236   -1.8491    0.7348 H   0  0  0  0  0  0  0  0  0  0  0  0
    2.9625    0.4533    1.6195 H   0  0  0  0  0  0  0  0  0  0  0  0
    3.2609    0.3858   -0.1203 H   0  0  0  0  0  0  0  0  0  0  0  0
    0.6768    1.3194    1.2054 H   0  0  0  0  0  0  0  0  0  0  0  0
    1.8834    2.3672    0.4533 H   0  0  0  0  0  0  0  0  0  0  0  0
   -0.0055    1.9332   -1.1040 H   0  0  0  0  0  0  0  0  0  0  0  0
    1.5071    1.2623   -1.7297 H   0  0  0  0  0  0  0  0  0  0  0  0
  1  2  1  0  0  0  0
  2  3  1  0  0  0  0
  3  4  2  0  0  0  0
  3  5  1  0  0  0  0
  5  6  1  0  0  0  0
  6  7  1  0  0  0  0
  7  8  1  0  0  0  0
  8  9  1  0  0  0  0
  5 10  1  0  0  0  0
  9 10  1  0  0  0  0
  1 11  1  0  0  0  0
  1 12  1  0  0  0  0
  1 13  1  0  0  0  0
  5 14  1  0  0  0  0
  6 15  1  0  0  0  0
  6 16  1  0  0  0  0
  7 17  1  0  0  0  0
  7 18  1  0  0  0  0
  8 19  1  0  0  0  0
  8 20  1  0  0  0  0
  9 21  1  0  0  0  0
  9 22  1  0  0  0  0
 10 23  1  0  0  0  0
 10 24  1  0  0  0  0
M  END
