4
 xtb: 6.7.1 (edcfbbe)
N           -0.00003893422565       -0.00002328752423       -0.08493091683800
H           -0.69266131422176        0.62486567574531        0.31563415154568
H            0.88744145215243        0.28733835890644        0.31567408805579
H           -0.19482520755192       -0.91235591724567        0.31555345479277
