18
 xtb: 6.7.1 (edcfbbe)
C           -2.86678098743647       -0.66454216950165        0.34198396378353
C           -1.98384280139550        0.41208020969712       -0.28050743321464
C           -0.49353340437962        0.20915532460373       -0.12588198995511
C            0.07449582413557       -1.04533819839430        0.11578031301037
C            1.45692384745740       -1.19751137227688        0.22184106569353
C            2.29879611789179       -0.09709701686130        0.09073256249264
C            1.74542414141957        1.16051177179087       -0.14620719648584
C            0.36610552925681        1.30843409598774       -0.25094891416055
H           -3.92041493488609       -0.38491385424427        0.24699833158797
H           -2.64638348370700       -0.79270594309543        1.40726739301298
H           -2.73997945326162       -1.63416815218410       -0.14898764572758
H           -2.24028310627224        1.38933553127228        0.14487501766619
H           -2.21268106630026        0.48847726959174       -1.35260584372859
H           -0.56152406944419       -1.91783013238478        0.22395966819434
H            1.87463926124737       -2.18215358216046        0.41039639210445
H            3.37449004269416       -0.21557804206431        0.17598568035727
H            2.39001919679222        2.02903040297350       -0.24440016297814
H           -0.05668707024018        2.29383971067159       -0.43141778227795
