 xtb: 6.7.1 (edcfbbe)
          04062518003D

 24 24  0     0  0            999 V2000
   -2.2296   -1.1783    0.1082 C   0  0  0  0  0  0  0  0  0  0  0  0
   -0.8530   -0.5753    0.4355 C   0  0  0  0  0  0  0  0  0  0  0  0
   -0.8199   -0.3175    1.5046 H   0  0  0  0  0  0  0  0  0  0  0  0
   -0.5762    0.6890   -0.3976 C   0  0  0  0  0  0  0  0  0  0  0  0
   -0.6024    0.4158   -1.4596 H   0  0  0  0  0  0  0  0  0  0  0  0
    0.8183    1.2651   -0.0704 C   0  0  0  0  0  0  0  0  0  0  0  0
    0.7185    2.0259    0.7128 H   0  0  0  0  0  0  0  0  0  0  0  0
    1.7551    0.1722    0.4864 C   0  0  0  0  0  0  0  0  0  0  0  0
    2.7816    0.4367    0.1971 H   0  0  0  0  0  0  0  0  0  0  0  0
    1.3990   -1.1713   -0.1684 C   0  0  0  0  0  0  0  0  0  0  0  0
    2.0605   -1.9706    0.2006 H   0  0  0  0  0  0  0  0  0  0  0  0
    0.1050   -1.5979    0.1712 O   0  0  0  0  0  0  0  0  0  0  0  0
    1.5530   -1.0049   -1.5467 O   0  0  0  0  0  0  0  0  0  0  0  0
    1.6108    0.1334    1.8811 O   0  0  0  0  0  0  0  0  0  0  0  0
    1.3885    1.9262   -1.1667 O   0  0  0  0  0  0  0  0  0  0  0  0
   -1.5994    1.6416   -0.2372 O   0  0  0  0  0  0  0  0  0  0  0  0
   -3.2949   -0.4151    0.6046 O   0  0  0  0  0  0  0  0  0  0  0  0
   -2.2946   -2.1590    0.5842 H   0  0  0  0  0  0  0  0  0  0  0  0
   -2.3124   -1.3096   -0.9787 H   0  0  0  0  0  0  0  0  0  0  0  0
    1.3976   -1.8461   -2.0030 H   0  0  0  0  0  0  0  0  0  0  0  0
    2.2726   -0.4546    2.2728 H   0  0  0  0  0  0  0  0  0  0  0  0
    1.5527    1.2801   -1.8715 H   0  0  0  0  0  0  0  0  0  0  0  0
   -1.4897    2.0990    0.6092 H   0  0  0  0  0  0  0  0  0  0  0  0
   -3.2391    0.4698    0.2034 H   0  0  0  0  0  0  0  0  0  0  0  0
  1  2  1  0  0  0  0
  2  3  1  0  0  0  0
  2  4  1  0  0  0  0
  4  5  1  0  0  0  0
  4  6  1  0  0  0  0
  6  7  1  0  0  0  0
  6  8  1  0  0  0  0
  8  9  1  0  0  0  0
  8 10  1  0  0  0  0
 10 11  1  0  0  0  0
  2 12  1  0  0  0  0
 10 12  1  0  0  0  0
 10 13  1  0  0  0  0
  8 14  1  0  0  0  0
  6 15  1  0  0  0  0
  4 16  1  0  0  0  0
  1 17  1  0  0  0  0
  1 18  1  0  0  0  0
  1 19  1  0  0  0  0
 13 20  1  0  0  0  0
 14 21  1  0  0  0  0
 15 22  1  0  0  0  0
 16 23  1  0  0  0  0
 17 24  1  0  0  0  0
M  END
