22
 xtb: 6.7.1 (edcfbbe)
C            3.37011807383841        0.03179301871704        0.15249315268202
N            1.94918134017169       -0.23646475188116        0.37097560292689
C            1.65112781573660       -1.21521483405069        1.41652199790303
C            1.05726212208072        0.21750541805548       -0.53260302879361
O            1.41287601302171        0.82427921316320       -1.56635123892872
C           -0.40275347275924        0.02519073989847       -0.27182691313717
C           -1.20360560777630       -0.46642799961854       -1.30644562154190
C           -2.57779259727090       -0.58382722071151       -1.12990847184478
C           -3.16472036378223       -0.18336813022670        0.06913764107675
C           -2.37197114019153        0.32828232923054        1.09405821766184
C           -0.99359784302879        0.42465463863876        0.93022644997507
H            3.50830489020837        1.03499192474965       -0.25348461479832
H            3.81067874338562       -0.69565319854492       -0.54084729692340
H            3.88788161333304       -0.03950865269759        1.11192435198695
H            2.32156142003734       -2.07404877160801        1.29901395224693
H            0.62475027331757       -1.56958672824152        1.33629033563994
H            1.80732140087159       -0.78583861043566        2.41208192972136
H           -0.74279633503247       -0.76217377525176       -2.24383060585882
H           -3.19232011823105       -0.98291023281671       -1.93063338761431
H           -4.23851698123529       -0.26580619393399        0.20283766997583
H           -2.82696915878257        0.65344208336776        2.02430437538868
H           -0.37998684204475        0.82378203561600        1.73188879595442
