16
 xtb: 6.7.1 (edcfbbe)
C            0.72638167784256       -1.20096706276864       -0.21802079352197
C           -0.72653120967151       -1.20086665157985        0.21798515472594
N           -1.40537296509654        0.00008345820479       -0.30294410443085
C           -0.72634059479928        1.20090854966099        0.21802364977608
C            0.72656624313019        1.20079357017515       -0.21799929223780
N            1.40539860966681       -0.00014333628837        0.30296418532721
H            0.76943619219343       -1.25283421353930       -1.32070018721162
H            1.22338693527673       -2.09408507413784        0.17507775334563
H           -1.22367281213232       -2.09388931515169       -0.17515873925421
H           -0.76959170414213       -1.25278334965117        1.32066121306961
H           -2.35235097896436        0.00015189726879        0.06391643900416
H           -1.22334924376867        2.09402406087452       -0.17507684972899
H           -0.76937742488644        1.25278718121809        1.32070267214128
H            0.76961306077850        1.25266485479244       -1.32067904153532
H            1.22371739694230        2.09382935974270        0.17510112589209
H            2.35239603806483       -0.00021408882002       -0.06384696001703
