 xtb: 6.7.1 (edcfbbe)
          04062507163D

 24 24  0     0  0            999 V2000
   -3.2321   -0.7342    0.8894 C   0  0  0  0  0  0  0  0  0  0  0  0
   -2.0095   -0.0931    0.4460 N   0  0  0  0  0  0  0  0  0  0  0  0
   -1.5160    0.9841    1.2759 C   0  0  0  0  0  0  0  0  0  0  0  0
   -1.5708   -0.3669   -0.7971 C   0  0  0  0  0  0  0  0  0  0  0  0
   -2.2245   -1.0514   -1.5905 O   0  0  0  0  0  0  0  0  0  0  0  0
   -0.3692    0.1964   -1.1949 N   0  0  0  0  0  0  0  0  0  0  0  0
    0.8393    0.1832   -0.4818 C   0  0  0  0  0  0  0  0  0  0  0  0
    1.8852    0.9871   -0.9313 C   0  0  0  0  0  0  0  0  0  0  0  0
    3.0982    0.9865   -0.2696 C   0  0  0  0  0  0  0  0  0  0  0  0
    3.2871    0.1859    0.8454 C   0  0  0  0  0  0  0  0  0  0  0  0
    2.2538   -0.6222    1.2879 C   0  0  0  0  0  0  0  0  0  0  0  0
    1.0368   -0.6303    0.6305 C   0  0  0  0  0  0  0  0  0  0  0  0
   -3.2293   -1.7724    0.5602 H   0  0  0  0  0  0  0  0  0  0  0  0
   -4.1115   -0.2470    0.4613 H   0  0  0  0  0  0  0  0  0  0  0  0
   -3.2777   -0.6906    1.9737 H   0  0  0  0  0  0  0  0  0  0  0  0
   -0.8508    1.6268    0.7069 H   0  0  0  0  0  0  0  0  0  0  0  0
   -0.9752    0.5912    2.1396 H   0  0  0  0  0  0  0  0  0  0  0  0
   -2.3634    1.5749    1.6246 H   0  0  0  0  0  0  0  0  0  0  0  0
   -0.2599    0.1859   -2.2010 H   0  0  0  0  0  0  0  0  0  0  0  0
    1.7397    1.6071   -1.8029 H   0  0  0  0  0  0  0  0  0  0  0  0
    3.9007    1.6131   -0.6279 H   0  0  0  0  0  0  0  0  0  0  0  0
    4.2362    0.1840    1.3583 H   0  0  0  0  0  0  0  0  0  0  0  0
    2.3976   -1.2639    2.1439 H   0  0  0  0  0  0  0  0  0  0  0  0
    0.2465   -1.2881    0.9580 H   0  0  0  0  0  0  0  0  0  0  0  0
  1  2  1  0  0  0  0
  2  3  1  0  0  0  0
  2  4  4  0  0  0  0
  4  5  2  0  0  0  0
  4  6  1  0  0  0  0
  6  7  1  0  0  0  0
  7  8  4  0  0  0  0
  8  9  4  0  0  0  0
  9 10  4  0  0  0  0
 10 11  4  0  0  0  0
  7 12  4  0  0  0  0
 11 12  4  0  0  0  0
  1 13  1  0  0  0  0
  1 14  1  0  0  0  0
  1 15  1  0  0  0  0
  3 16  1  0  0  0  0
  3 17  1  0  0  0  0
  3 18  1  0  0  0  0
  6 19  1  0  0  0  0
  8 20  1  0  0  0  0
  9 21  1  0  0  0  0
 10 22  1  0  0  0  0
 11 23  1  0  0  0  0
 12 24  1  0  0  0  0
M  END
