 xtb: 6.7.1 (edcfbbe)
          04052503133D

 19 19  0     0  0            999 V2000
   -2.8133    1.4012   -0.0949 C   0  0  0  0  0  0  0  0  0  0  0  0
   -2.3780   -0.0513    0.0487 C   0  0  0  0  0  0  0  0  0  0  0  0
   -0.8902   -0.2896    0.0437 C   0  0  0  0  0  0  0  0  0  0  0  0
   -0.4295   -1.6008    0.1551 C   0  0  0  0  0  0  0  0  0  0  0  0
    0.9229   -1.8762    0.1567 C   0  0  0  0  0  0  0  0  0  0  0  0
    1.8490   -0.8523    0.0472 C   0  0  0  0  0  0  0  0  0  0  0  0
    1.4027    0.4565   -0.0642 C   0  0  0  0  0  0  0  0  0  0  0  0
    0.0373    0.7313   -0.0653 C   0  0  0  0  0  0  0  0  0  0  0  0
    2.2578    1.5126   -0.1752 O   0  0  0  0  0  0  0  0  0  0  0  0
   -2.4321    2.0029    0.7267 H   0  0  0  0  0  0  0  0  0  0  0  0
   -3.8991    1.4601   -0.0848 H   0  0  0  0  0  0  0  0  0  0  0  0
   -2.4579    1.8208   -1.0329 H   0  0  0  0  0  0  0  0  0  0  0  0
   -2.8160   -0.6374   -0.7645 H   0  0  0  0  0  0  0  0  0  0  0  0
   -2.7808   -0.4542    0.9826 H   0  0  0  0  0  0  0  0  0  0  0  0
   -1.1430   -2.4071    0.2410 H   0  0  0  0  0  0  0  0  0  0  0  0
    1.2663   -2.8962    0.2436 H   0  0  0  0  0  0  0  0  0  0  0  0
    2.9070   -1.0712    0.0486 H   0  0  0  0  0  0  0  0  0  0  0  0
   -0.2607    1.7630   -0.1541 H   0  0  0  0  0  0  0  0  0  0  0  0
    3.1767    1.2062   -0.1644 H   0  0  0  0  0  0  0  0  0  0  0  0
  1  2  1  0  0  0  0
  2  3  1  0  0  0  0
  3  4  4  0  0  0  0
  4  5  4  0  0  0  0
  5  6  4  0  0  0  0
  6  7  4  0  0  0  0
  3  8  4  0  0  0  0
  7  8  4  0  0  0  0
  7  9  1  0  0  0  0
  1 10  1  0  0  0  0
  1 11  1  0  0  0  0
  1 12  1  0  0  0  0
  2 13  1  0  0  0  0
  2 14  1  0  0  0  0
  4 15  1  0  0  0  0
  5 16  1  0  0  0  0
  6 17  1  0  0  0  0
  8 18  1  0  0  0  0
  9 19  1  0  0  0  0
M  END
