 xtb: 6.7.1 (edcfbbe)
          04062518003D

 24 24  0     0  0            999 V2000
   -2.2370   -1.0000   -0.3596 C   0  0  0  0  0  0  0  0  0  0  0  0
   -1.1492   -0.2309    0.4023 C   0  0  0  0  0  0  0  0  0  0  0  0
   -1.5996    0.1916    1.3098 H   0  0  0  0  0  0  0  0  0  0  0  0
   -0.5698    0.9058   -0.4538 C   0  0  0  0  0  0  0  0  0  0  0  0
   -0.3884    0.5377   -1.4713 H   0  0  0  0  0  0  0  0  0  0  0  0
    0.7681    1.3251    0.1740 C   0  0  0  0  0  0  0  0  0  0  0  0
    0.6371    1.4849    1.2517 H   0  0  0  0  0  0  0  0  0  0  0  0
    1.7628    0.1684   -0.0256 C   0  0  0  0  0  0  0  0  0  0  0  0
    2.1499    0.2052   -1.0558 H   0  0  0  0  0  0  0  0  0  0  0  0
    1.0522   -1.1911    0.1342 C   0  0  0  0  0  0  0  0  0  0  0  0
    1.7044   -1.8317    0.7428 H   0  0  0  0  0  0  0  0  0  0  0  0
   -0.1331   -1.1173    0.8827 O   0  0  0  0  0  0  0  0  0  0  0  0
    0.8429   -1.7192   -1.1395 O   0  0  0  0  0  0  0  0  0  0  0  0
    2.8206    0.2143    0.8967 O   0  0  0  0  0  0  0  0  0  0  0  0
    1.2638    2.5381   -0.3290 O   0  0  0  0  0  0  0  0  0  0  0  0
   -1.4694    1.9678   -0.6009 O   0  0  0  0  0  0  0  0  0  0  0  0
   -2.9771   -1.8503    0.4801 O   0  0  0  0  0  0  0  0  0  0  0  0
   -1.7745   -1.5644   -1.1792 H   0  0  0  0  0  0  0  0  0  0  0  0
   -2.9457   -0.2820   -0.7775 H   0  0  0  0  0  0  0  0  0  0  0  0
    0.6863   -2.6742   -1.0903 H   0  0  0  0  0  0  0  0  0  0  0  0
    3.2370    1.0890    0.8523 H   0  0  0  0  0  0  0  0  0  0  0  0
    1.1638    2.5627   -1.2916 H   0  0  0  0  0  0  0  0  0  0  0  0
   -1.5876    2.4247    0.2451 H   0  0  0  0  0  0  0  0  0  0  0  0
   -2.3595   -2.4047    0.9790 H   0  0  0  0  0  0  0  0  0  0  0  0
  1  2  1  0  0  0  0
  2  3  1  0  0  0  0
  2  4  1  0  0  0  0
  4  5  1  0  0  0  0
  4  6  1  0  0  0  0
  6  7  1  0  0  0  0
  6  8  1  0  0  0  0
  8  9  1  0  0  0  0
  8 10  1  0  0  0  0
 10 11  1  0  0  0  0
  2 12  1  0  0  0  0
 10 12  1  0  0  0  0
 10 13  1  0  0  0  0
  8 14  1  0  0  0  0
  6 15  1  0  0  0  0
  4 16  1  0  0  0  0
  1 17  1  0  0  0  0
  1 18  1  0  0  0  0
  1 19  1  0  0  0  0
 13 20  1  0  0  0  0
 14 21  1  0  0  0  0
 15 22  1  0  0  0  0
 16 23  1  0  0  0  0
 17 24  1  0  0  0  0
M  END
