 xtb: 6.7.1 (edcfbbe)
          04062518003D

 24 24  0     0  0            999 V2000
   -2.3206   -1.0066   -0.3505 C   0  0  0  0  0  0  0  0  0  0  0  0
   -0.9520   -0.5624    0.1642 C   0  0  0  0  0  0  0  0  0  0  0  0
   -0.8910   -0.7823    1.2424 H   0  0  0  0  0  0  0  0  0  0  0  0
   -0.7443    0.9584   -0.0242 C   0  0  0  0  0  0  0  0  0  0  0  0
   -1.3906    1.3270   -0.8321 H   0  0  0  0  0  0  0  0  0  0  0  0
    0.7172    1.2477   -0.4358 C   0  0  0  0  0  0  0  0  0  0  0  0
    0.9294    2.2955   -0.1960 H   0  0  0  0  0  0  0  0  0  0  0  0
    1.6577    0.3466    0.3757 C   0  0  0  0  0  0  0  0  0  0  0  0
    2.6927    0.4996    0.0473 H   0  0  0  0  0  0  0  0  0  0  0  0
    1.3212   -1.1413    0.0867 C   0  0  0  0  0  0  0  0  0  0  0  0
    1.3262   -1.6804    1.0561 H   0  0  0  0  0  0  0  0  0  0  0  0
    0.0447   -1.2984   -0.5146 O   0  0  0  0  0  0  0  0  0  0  0  0
    2.2597   -1.6453   -0.7880 O   0  0  0  0  0  0  0  0  0  0  0  0
    1.6028    0.6284    1.7502 O   0  0  0  0  0  0  0  0  0  0  0  0
    0.9118    1.1180   -1.8168 O   0  0  0  0  0  0  0  0  0  0  0  0
   -1.0027    1.6536    1.1733 O   0  0  0  0  0  0  0  0  0  0  0  0
   -3.2871   -0.2414    0.3307 O   0  0  0  0  0  0  0  0  0  0  0  0
   -2.4435   -2.0778   -0.1551 H   0  0  0  0  0  0  0  0  0  0  0  0
   -2.3635   -0.8343   -1.4325 H   0  0  0  0  0  0  0  0  0  0  0  0
    2.0479   -2.5659   -1.0110 H   0  0  0  0  0  0  0  0  0  0  0  0
    0.7521    1.0546    1.9583 H   0  0  0  0  0  0  0  0  0  0  0  0
    0.8762    0.1790   -2.0568 H   0  0  0  0  0  0  0  0  0  0  0  0
   -1.9423    1.5553    1.3925 H   0  0  0  0  0  0  0  0  0  0  0  0
   -4.1709   -0.5047    0.0387 H   0  0  0  0  0  0  0  0  0  0  0  0
  1  2  1  0  0  0  0
  2  3  1  0  0  0  0
  2  4  1  0  0  0  0
  4  5  1  0  0  0  0
  4  6  1  0  0  0  0
  6  7  1  0  0  0  0
  6  8  1  0  0  0  0
  8  9  1  0  0  0  0
  8 10  1  0  0  0  0
 10 11  1  0  0  0  0
  2 12  1  0  0  0  0
 10 12  1  0  0  0  0
 10 13  1  0  0  0  0
  8 14  1  0  0  0  0
  6 15  1  0  0  0  0
  4 16  1  0  0  0  0
  1 17  1  0  0  0  0
  1 18  1  0  0  0  0
  1 19  1  0  0  0  0
 13 20  1  0  0  0  0
 14 21  1  0  0  0  0
 15 22  1  0  0  0  0
 16 23  1  0  0  0  0
 17 24  1  0  0  0  0
M  END
