22
 xtb: 6.7.1 (edcfbbe)
C           -5.07549232868211       -0.72499265107665        0.05094322801325
C           -4.31085090184315       -1.37520290971764       -0.91417211907849
C           -2.92788961712280       -1.22191024000441       -0.92894729296258
C           -2.29834005670035       -0.40627865087594        0.01704317925293
C           -3.07090823039116        0.24217241449919        0.98666892281459
C           -4.45159175041310        0.07958406306886        1.00271314973362
C           -0.82189924274387       -0.29373069753487        0.01226307897100
C           -0.06715202147636       -1.46538882372542        0.08083139220815
C            1.31717718439045       -1.42915235660009        0.08861217827749
C            1.99896959789223       -0.21189776884982        0.02990875260823
C            1.25773795098486        0.97388452463024       -0.05471696933125
C           -0.14135363776143        0.92818314130427       -0.06827924173813
Cl          -1.03361909130967        2.41225170469681       -0.25581914892540
Cl           2.08518124713357        2.49256133555246       -0.15862170583843
Cl           3.72852473790449       -0.16714929286191        0.05595303044496
Cl           2.19388918488553       -2.93034195140270        0.18811532923095
H           -6.15377688656423       -0.84716908601512        0.06505287987909
H           -4.78973158269613       -2.00367920148378       -1.65828404178736
H           -2.33046577193579       -1.72564283786308       -1.68280746890609
H           -2.58952127015780        0.85761824344848        1.73943477076055
H           -5.04155073372102        0.57945970909076        1.76441397426697
H           -0.57826052814068       -2.41888252128380        0.14587900781106
