 xtb: 6.7.1 (edcfbbe)
          04042516153D

 13 13  0     0  0            999 V2000
    1.3353    1.3285    0.0000 C   0  0  0  0  0  0  0  0  0  0  0  0
   -0.0286    1.1071   -0.0001 C   0  0  0  0  0  0  0  0  0  0  0  0
   -0.4958   -0.2114   -0.0000 C   0  0  0  0  0  0  0  0  0  0  0  0
    0.4494   -1.2418    0.0000 C   0  0  0  0  0  0  0  0  0  0  0  0
    1.7508   -1.0295   -0.0000 N   0  0  0  0  0  0  0  0  0  0  0  0
    2.1806    0.2251    0.0000 C   0  0  0  0  0  0  0  0  0  0  0  0
   -1.9272   -0.5045    0.0000 C   0  0  0  0  0  0  0  0  0  0  0  0
   -2.8087    0.3276    0.0000 O   0  0  0  0  0  0  0  0  0  0  0  0
    1.7386    2.3277    0.0001 H   0  0  0  0  0  0  0  0  0  0  0  0
   -0.7434    1.9168    0.0003 H   0  0  0  0  0  0  0  0  0  0  0  0
    0.1390   -2.2782   -0.0001 H   0  0  0  0  0  0  0  0  0  0  0  0
    3.2550    0.3441    0.0000 H   0  0  0  0  0  0  0  0  0  0  0  0
   -2.1720   -1.5814    0.0001 H   0  0  0  0  0  0  0  0  0  0  0  0
  1  2  4  0  0  0  0
  2  3  4  0  0  0  0
  3  4  4  0  0  0  0
  4  5  4  0  0  0  0
  1  6  4  0  0  0  0
  5  6  4  0  0  0  0
  3  7  1  0  0  0  0
  7  8  2  0  0  0  0
  1  9  1  0  0  0  0
  2 10  1  0  0  0  0
  4 11  1  0  0  0  0
  6 12  1  0  0  0  0
  7 13  1  0  0  0  0
M  END
