 xtb: 6.7.1 (edcfbbe)
          04042519283D

 15 15  0     0  0            999 V2000
   -2.6122    0.5139   -0.0006 C   0  0  0  0  0  0  0  0  0  0  0  0
   -1.2383    0.9090   -0.0021 O   0  0  0  0  0  0  0  0  0  0  0  0
   -0.3234   -0.0642   -0.0001 C   0  0  0  0  0  0  0  0  0  0  0  0
   -0.6143   -1.2446    0.0029 O   0  0  0  0  0  0  0  0  0  0  0  0
    1.0451    0.4834   -0.0018 C   0  0  0  0  0  0  0  0  0  0  0  0
    2.1143   -0.2846    0.7425 C   0  0  0  0  0  0  0  0  0  0  0  0
    2.1145   -0.2891   -0.7410 C   0  0  0  0  0  0  0  0  0  0  0  0
   -3.1816    1.4377   -0.0042 H   0  0  0  0  0  0  0  0  0  0  0  0
   -2.8289   -0.0779    0.8897 H   0  0  0  0  0  0  0  0  0  0  0  0
   -2.8290   -0.0850   -0.8861 H   0  0  0  0  0  0  0  0  0  0  0  0
    1.0778    1.5631   -0.0050 H   0  0  0  0  0  0  0  0  0  0  0  0
    2.8569    0.2932    1.2681 H   0  0  0  0  0  0  0  0  0  0  0  0
    1.7952   -1.1825    1.2492 H   0  0  0  0  0  0  0  0  0  0  0  0
    2.8572    0.2857   -1.2699 H   0  0  0  0  0  0  0  0  0  0  0  0
    1.7955   -1.1900   -1.2423 H   0  0  0  0  0  0  0  0  0  0  0  0
  1  2  1  0  0  0  0
  2  3  1  0  0  0  0
  3  4  2  0  0  0  0
  3  5  1  0  0  0  0
  5  6  1  0  0  0  0
  5  7  1  0  0  0  0
  6  7  1  0  0  0  0
  1  8  1  0  0  0  0
  1  9  1  0  0  0  0
  1 10  1  0  0  0  0
  5 11  1  0  0  0  0
  6 12  1  0  0  0  0
  6 13  1  0  0  0  0
  7 14  1  0  0  0  0
  7 15  1  0  0  0  0
M  END
