 xtb: 6.7.1 (edcfbbe)
          04062518003D

 24 24  0     0  0            999 V2000
   -2.3685   -0.8425    0.5417 C   0  0  0  0  0  0  0  0  0  0  0  0
   -0.9072   -0.3869    0.6294 C   0  0  0  0  0  0  0  0  0  0  0  0
   -0.5874   -0.3922    1.6796 H   0  0  0  0  0  0  0  0  0  0  0  0
   -0.7380    1.0412    0.0898 C   0  0  0  0  0  0  0  0  0  0  0  0
   -1.3960    1.1477   -0.7867 H   0  0  0  0  0  0  0  0  0  0  0  0
    0.7237    1.2632   -0.3721 C   0  0  0  0  0  0  0  0  0  0  0  0
    1.0247    2.2828   -0.0902 H   0  0  0  0  0  0  0  0  0  0  0  0
    1.6817    0.2905    0.3311 C   0  0  0  0  0  0  0  0  0  0  0  0
    2.6796    0.4288   -0.1091 H   0  0  0  0  0  0  0  0  0  0  0  0
    1.2590   -1.1653    0.0105 C   0  0  0  0  0  0  0  0  0  0  0  0
    1.6018   -1.8305    0.8209 H   0  0  0  0  0  0  0  0  0  0  0  0
   -0.1396   -1.3026   -0.1341 O   0  0  0  0  0  0  0  0  0  0  0  0
    1.8610   -1.6278   -1.1445 O   0  0  0  0  0  0  0  0  0  0  0  0
    1.6883    0.5769    1.7040 O   0  0  0  0  0  0  0  0  0  0  0  0
    0.8891    1.0457   -1.7521 O   0  0  0  0  0  0  0  0  0  0  0  0
   -1.1255    1.9168    1.1163 O   0  0  0  0  0  0  0  0  0  0  0  0
   -2.8364   -0.8723   -0.7816 O   0  0  0  0  0  0  0  0  0  0  0  0
   -2.9910   -0.1272    1.0813 H   0  0  0  0  0  0  0  0  0  0  0  0
   -2.4580   -1.8308    1.0075 H   0  0  0  0  0  0  0  0  0  0  0  0
    1.5826   -1.0624   -1.8865 H   0  0  0  0  0  0  0  0  0  0  0  0
    2.4459    0.1493    2.1279 H   0  0  0  0  0  0  0  0  0  0  0  0
    0.3793    1.6951   -2.2576 H   0  0  0  0  0  0  0  0  0  0  0  0
   -1.1878    2.8218    0.7778 H   0  0  0  0  0  0  0  0  0  0  0  0
   -2.2804   -1.4892   -1.2801 H   0  0  0  0  0  0  0  0  0  0  0  0
  1  2  1  0  0  0  0
  2  3  1  0  0  0  0
  2  4  1  0  0  0  0
  4  5  1  0  0  0  0
  4  6  1  0  0  0  0
  6  7  1  0  0  0  0
  6  8  1  0  0  0  0
  8  9  1  0  0  0  0
  8 10  1  0  0  0  0
 10 11  1  0  0  0  0
  2 12  1  0  0  0  0
 10 12  1  0  0  0  0
 10 13  1  0  0  0  0
  8 14  1  0  0  0  0
  6 15  1  0  0  0  0
  4 16  1  0  0  0  0
  1 17  1  0  0  0  0
  1 18  1  0  0  0  0
  1 19  1  0  0  0  0
 13 20  1  0  0  0  0
 14 21  1  0  0  0  0
 15 22  1  0  0  0  0
 16 23  1  0  0  0  0
 17 24  1  0  0  0  0
M  END
