 xtb: 6.7.1 (edcfbbe)
          04032521473D

 24 24  0     0  0            999 V2000
    2.1247   -2.0978   -0.0410 C   0  0  0  0  0  0  0  0  0  0  0  0
    1.1682   -0.9674    0.1089 C   0  0  0  0  0  0  0  0  0  0  0  0
    1.5484    0.3137   -0.0230 C   0  0  0  0  0  0  0  0  0  0  0  0
    0.6341    1.4295    0.1206 C   0  0  0  0  0  0  0  0  0  0  0  0
    0.9890    2.5937   -0.0528 O   0  0  0  0  0  0  0  0  0  0  0  0
   -0.7762    1.0895    0.5362 C   0  0  0  0  0  0  0  0  0  0  0  0
   -1.2537   -0.2599   -0.0110 C   0  0  0  0  0  0  0  0  0  0  0  0
   -0.2462   -1.3334    0.4218 C   0  0  0  0  0  0  0  0  0  0  0  0
   -1.3426   -0.2035   -1.5377 C   0  0  0  0  0  0  0  0  0  0  0  0
   -2.6337   -0.5883    0.5618 C   0  0  0  0  0  0  0  0  0  0  0  0
    3.1473   -1.7439   -0.1310 H   0  0  0  0  0  0  0  0  0  0  0  0
    1.8720   -2.6728   -0.9310 H   0  0  0  0  0  0  0  0  0  0  0  0
    2.0474   -2.7682    0.8126 H   0  0  0  0  0  0  0  0  0  0  0  0
    2.5713    0.5729   -0.2590 H   0  0  0  0  0  0  0  0  0  0  0  0
   -0.7761    1.0598    1.6305 H   0  0  0  0  0  0  0  0  0  0  0  0
   -1.4376    1.9023    0.2298 H   0  0  0  0  0  0  0  0  0  0  0  0
   -0.3220   -1.4753    1.5049 H   0  0  0  0  0  0  0  0  0  0  0  0
   -0.4919   -2.2879   -0.0465 H   0  0  0  0  0  0  0  0  0  0  0  0
   -0.3739    0.0288   -1.9745 H   0  0  0  0  0  0  0  0  0  0  0  0
   -2.0457    0.5664   -1.8469 H   0  0  0  0  0  0  0  0  0  0  0  0
   -1.6832   -1.1570   -1.9339 H   0  0  0  0  0  0  0  0  0  0  0  0
   -2.6044   -0.6220    1.6482 H   0  0  0  0  0  0  0  0  0  0  0  0
   -2.9751   -1.5531    0.1954 H   0  0  0  0  0  0  0  0  0  0  0  0
   -3.3569    0.1664    0.2630 H   0  0  0  0  0  0  0  0  0  0  0  0
  1  2  1  0  0  0  0
  2  3  2  0  0  0  0
  3  4  1  0  0  0  0
  4  5  2  0  0  0  0
  4  6  1  0  0  0  0
  6  7  1  0  0  0  0
  2  8  1  0  0  0  0
  7  8  1  0  0  0  0
  7  9  1  0  0  0  0
  7 10  1  0  0  0  0
  1 11  1  0  0  0  0
  1 12  1  0  0  0  0
  1 13  1  0  0  0  0
  3 14  1  0  0  0  0
  6 15  1  0  0  0  0
  6 16  1  0  0  0  0
  8 17  1  0  0  0  0
  8 18  1  0  0  0  0
  9 19  1  0  0  0  0
  9 20  1  0  0  0  0
  9 21  1  0  0  0  0
 10 22  1  0  0  0  0
 10 23  1  0  0  0  0
 10 24  1  0  0  0  0
M  END
