 xtb: 6.7.1 (edcfbbe)
          04062518003D

 24 24  0     0  0            999 V2000
   -2.5078   -1.0207    0.3712 C   0  0  0  0  0  0  0  0  0  0  0  0
   -1.0587   -0.5385    0.5907 C   0  0  0  0  0  0  0  0  0  0  0  0
   -0.8618   -0.5014    1.6759 H   0  0  0  0  0  0  0  0  0  0  0  0
   -0.7998    0.8450   -0.0246 C   0  0  0  0  0  0  0  0  0  0  0  0
   -0.9627    0.7769   -1.1062 H   0  0  0  0  0  0  0  0  0  0  0  0
    0.6599    1.2673    0.2073 C   0  0  0  0  0  0  0  0  0  0  0  0
    0.8357    1.4338    1.2841 H   0  0  0  0  0  0  0  0  0  0  0  0
    1.6209    0.1685   -0.2548 C   0  0  0  0  0  0  0  0  0  0  0  0
    1.6132    0.1386   -1.3530 H   0  0  0  0  0  0  0  0  0  0  0  0
    1.1730   -1.2106    0.2700 C   0  0  0  0  0  0  0  0  0  0  0  0
    1.3378   -1.2259    1.3711 H   0  0  0  0  0  0  0  0  0  0  0  0
   -0.1805   -1.4819    0.0065 O   0  0  0  0  0  0  0  0  0  0  0  0
    1.9421   -2.1696   -0.3590 O   0  0  0  0  0  0  0  0  0  0  0  0
    2.9011    0.4704    0.2343 O   0  0  0  0  0  0  0  0  0  0  0  0
    0.9547    2.4395   -0.5099 O   0  0  0  0  0  0  0  0  0  0  0  0
   -1.6930    1.8230    0.4446 O   0  0  0  0  0  0  0  0  0  0  0  0
   -3.0379   -0.7107   -0.8887 O   0  0  0  0  0  0  0  0  0  0  0  0
   -3.1377   -0.6093    1.1668 H   0  0  0  0  0  0  0  0  0  0  0  0
   -2.5065   -2.1101    0.4395 H   0  0  0  0  0  0  0  0  0  0  0  0
    1.5319   -3.0411   -0.2447 H   0  0  0  0  0  0  0  0  0  0  0  0
    3.5341   -0.1676   -0.1272 H   0  0  0  0  0  0  0  0  0  0  0  0
    0.2314    3.0734   -0.3772 H   0  0  0  0  0  0  0  0  0  0  0  0
   -1.5893    1.9342    1.4015 H   0  0  0  0  0  0  0  0  0  0  0  0
   -3.2242    0.2387   -0.9305 H   0  0  0  0  0  0  0  0  0  0  0  0
  1  2  1  0  0  0  0
  2  3  1  0  0  0  0
  2  4  1  0  0  0  0
  4  5  1  0  0  0  0
  4  6  1  0  0  0  0
  6  7  1  0  0  0  0
  6  8  1  0  0  0  0
  8  9  1  0  0  0  0
  8 10  1  0  0  0  0
 10 11  1  0  0  0  0
  2 12  1  0  0  0  0
 10 12  1  0  0  0  0
 10 13  1  0  0  0  0
  8 14  1  0  0  0  0
  6 15  1  0  0  0  0
  4 16  1  0  0  0  0
  1 17  1  0  0  0  0
  1 18  1  0  0  0  0
  1 19  1  0  0  0  0
 13 20  1  0  0  0  0
 14 21  1  0  0  0  0
 15 22  1  0  0  0  0
 16 23  1  0  0  0  0
 17 24  1  0  0  0  0
M  END
