12
CONF1
C -2.5073576331 0.0794480215 -0.0050271130
C -1.0991734242 -0.5121504108 -0.0346890170
C -0.0456648744 0.5817805763 0.0558403568
S 1.6917267967 -0.0474003255 -0.0297058327
H -3.2640648786 -0.7093092022 -0.0578186200
H -2.6769325636 0.6471676087 0.9160968756
H -2.6661284919 0.7557849349 -0.8518273158
H -0.9505804475 -1.0861665845 -0.9559692251
H -0.9703654749 -1.2089299846 0.8023972376
H -0.1309654108 1.2742542863 -0.7884842206
H -0.1606600106 1.1634427323 0.9753600655
H 1.6302406185 -0.8136001916 1.0760622382
12
CONF3
C -1.9622539175 -0.2352925880 0.5017395349
C -1.1745436378 -0.1062684237 -0.7966271625
C 0.1223503589 0.6794930123 -0.6569695080
S 1.4099121257 -0.1351999769 0.3990526236
H -1.4187498999 -0.8256649982 1.2465468078
H -2.1674984816 0.7505212682 0.9342562714
H -2.9213868709 -0.7318674984 0.3260684564
H -1.7861964470 0.4217471188 -1.5406323693
H -0.9584040836 -1.0979686507 -1.2103117423
H 0.6088554590 0.7955332423 -1.6300724894
H -0.0635240655 1.6806142359 -0.2562578477
H 0.7789803700 0.0107970541 1.5778454473
12
CONF2
C -1.9504131838 -0.2307432671 0.5401968544
C -1.1863120989 -0.0718112816 -0.7688783236
C 0.1204881695 0.6996609741 -0.6355021387
S 1.4065865150 -0.1416383486 0.4010524921
H -1.3678311300 -0.7982828457 1.2723216030
H -2.1805215577 0.7477533665 0.9768770493
H -2.8955040009 -0.7585372930 0.3787934432
H -1.8070543841 0.4759383623 -1.4907539678
H -0.9843959209 -1.0537694917 -1.2139583758
H 0.5597205643 0.9030313479 -1.6155532939
H -0.0471581858 1.6620095700 -0.1398541120
H 1.5791870376 -1.2019658845 -0.4112862251
12
CONF4
C -2.5045714092 0.0373114248 0.0205007189
C -1.0825644974 -0.5160693561 -0.0406136470
C -0.0576937124 0.6062123714 0.0532727698
S 1.6521918853 -0.1073070832 -0.0249763933
H -2.6758926127 0.5760644832 0.9586058017
H -2.6922301435 0.7306327157 -0.8064251679
H -3.2405101638 -0.7701090294 -0.0434642719
H -0.9390296183 -1.0685090118 -0.9770182834
H -0.9257649560 -1.2268886656 0.7796790462
H -0.1814109672 1.3096967453 -0.7751910529
H -0.1681472052 1.1484309517 0.9968133236
H 2.3214795612 1.0556685420 0.0820545635
12
CONF5
C -1.9322425040 -0.2812521849 0.5273151613
C -1.1661185860 -0.0932205222 -0.7788370172
C 0.1035146512 0.7358545181 -0.6385055840
S 1.3147650288 -0.1139351804 0.4894292041
H -2.8829514686 -0.7928334589 0.3482878662
H -1.3657662267 -0.8812230371 1.2472815772
H -2.1503149434 0.6859529637 0.9940454012
H -1.8037030829 0.4281144818 -1.5036060934
H -0.9234447301 -1.0680514145 -1.2188629468
H 0.5846302355 0.8657859063 -1.6109660085
H -0.1261712822 1.7210404137 -0.2214534152
H 2.3459704563 0.7169599925 0.2528069779
