 xtb: 6.7.1 (edcfbbe)
          04062518003D

 24 24  0     0  0            999 V2000
   -2.3107   -1.0028   -0.3413 C   0  0  0  0  0  0  0  0  0  0  0  0
   -0.9437   -0.5663    0.1835 C   0  0  0  0  0  0  0  0  0  0  0  0
   -0.8949   -0.7673    1.2672 H   0  0  0  0  0  0  0  0  0  0  0  0
   -0.7320    0.9521   -0.0246 C   0  0  0  0  0  0  0  0  0  0  0  0
   -1.3646    1.3033   -0.8498 H   0  0  0  0  0  0  0  0  0  0  0  0
    0.7251    1.2460   -0.4225 C   0  0  0  0  0  0  0  0  0  0  0  0
    0.9364    2.2904   -0.1403 H   0  0  0  0  0  0  0  0  0  0  0  0
    1.6601    0.3326    0.3810 C   0  0  0  0  0  0  0  0  0  0  0  0
    2.7022    0.4767    0.0694 H   0  0  0  0  0  0  0  0  0  0  0  0
    1.3278   -1.1522    0.0815 C   0  0  0  0  0  0  0  0  0  0  0  0
    1.3811   -1.7058    1.0453 H   0  0  0  0  0  0  0  0  0  0  0  0
    0.0420   -1.3314   -0.4731 O   0  0  0  0  0  0  0  0  0  0  0  0
    2.2539   -1.6324   -0.8229 O   0  0  0  0  0  0  0  0  0  0  0  0
    1.6012    0.6185    1.7549 O   0  0  0  0  0  0  0  0  0  0  0  0
    0.8337    1.0712   -1.8087 O   0  0  0  0  0  0  0  0  0  0  0  0
   -1.0111    1.6612    1.1597 O   0  0  0  0  0  0  0  0  0  0  0  0
   -3.2810   -0.2121    0.3051 O   0  0  0  0  0  0  0  0  0  0  0  0
   -2.4508   -2.0679   -0.1254 H   0  0  0  0  0  0  0  0  0  0  0  0
   -2.3253   -0.8529   -1.4273 H   0  0  0  0  0  0  0  0  0  0  0  0
    1.9260   -2.4600   -1.2089 H   0  0  0  0  0  0  0  0  0  0  0  0
    0.7406    1.0222    1.9657 H   0  0  0  0  0  0  0  0  0  0  0  0
    1.7582    1.1613   -2.0805 H   0  0  0  0  0  0  0  0  0  0  0  0
   -1.9539    1.5591    1.3633 H   0  0  0  0  0  0  0  0  0  0  0  0
   -4.1610   -0.4652   -0.0073 H   0  0  0  0  0  0  0  0  0  0  0  0
  1  2  1  0  0  0  0
  2  3  1  0  0  0  0
  2  4  1  0  0  0  0
  4  5  1  0  0  0  0
  4  6  1  0  0  0  0
  6  7  1  0  0  0  0
  6  8  1  0  0  0  0
  8  9  1  0  0  0  0
  8 10  1  0  0  0  0
 10 11  1  0  0  0  0
  2 12  1  0  0  0  0
 10 12  1  0  0  0  0
 10 13  1  0  0  0  0
  8 14  1  0  0  0  0
  6 15  1  0  0  0  0
  4 16  1  0  0  0  0
  1 17  1  0  0  0  0
  1 18  1  0  0  0  0
  1 19  1  0  0  0  0
 13 20  1  0  0  0  0
 14 21  1  0  0  0  0
 15 22  1  0  0  0  0
 16 23  1  0  0  0  0
 17 24  1  0  0  0  0
M  END
