 xtb: 6.7.1 (edcfbbe)
          04032521443D

  5  4  0     0  0            999 V2000
    0.4409   -0.0000   -0.4024 C   0  0  0  0  0  0  0  0  0  0  0  0
    1.0400    1.0764    0.1258 F   0  0  0  0  0  0  0  0  0  0  0  0
    1.0403   -1.0762    0.1260 F   0  0  0  0  0  0  0  0  0  0  0  0
   -1.2802   -0.0002    0.0436 Cl  0  0  0  0  0  0  0  0  0  0  0  0
    0.5694   -0.0001   -1.4926 H   0  0  0  0  0  0  0  0  0  0  0  0
  1  2  1  0  0  0  0
  1  3  1  0  0  0  0
  1  4  1  0  0  0  0
  1  5  1  0  0  0  0
M  END
