 xtb: 6.7.1 (edcfbbe)
          04062518003D

 24 24  0     0  0            999 V2000
   -2.3927   -1.1585   -0.3037 C   0  0  0  0  0  0  0  0  0  0  0  0
   -1.0587   -0.6255    0.2458 C   0  0  0  0  0  0  0  0  0  0  0  0
   -1.0817   -0.6098    1.3482 H   0  0  0  0  0  0  0  0  0  0  0  0
   -0.7796    0.8042   -0.2492 C   0  0  0  0  0  0  0  0  0  0  0  0
   -0.8100    0.8098   -1.3509 H   0  0  0  0  0  0  0  0  0  0  0  0
    0.6224    1.2353    0.1981 C   0  0  0  0  0  0  0  0  0  0  0  0
    0.6272    1.3154    1.2972 H   0  0  0  0  0  0  0  0  0  0  0  0
    1.6667    0.1952   -0.2239 C   0  0  0  0  0  0  0  0  0  0  0  0
    1.7164    0.1816   -1.3242 H   0  0  0  0  0  0  0  0  0  0  0  0
    1.2429   -1.2008    0.2726 C   0  0  0  0  0  0  0  0  0  0  0  0
    1.2643   -1.2007    1.3743 H   0  0  0  0  0  0  0  0  0  0  0  0
   -0.0537   -1.5129   -0.1992 O   0  0  0  0  0  0  0  0  0  0  0  0
    2.0911   -2.2062   -0.1241 O   0  0  0  0  0  0  0  0  0  0  0  0
    2.9252    0.4843    0.3225 O   0  0  0  0  0  0  0  0  0  0  0  0
    0.9957    2.4652   -0.3743 O   0  0  0  0  0  0  0  0  0  0  0  0
   -1.6913    1.7367    0.2747 O   0  0  0  0  0  0  0  0  0  0  0  0
   -3.4948   -0.4142    0.1523 O   0  0  0  0  0  0  0  0  0  0  0  0
   -2.4753   -2.2178   -0.0449 H   0  0  0  0  0  0  0  0  0  0  0  0
   -2.3843   -1.0711   -1.3925 H   0  0  0  0  0  0  0  0  0  0  0  0
    2.0675   -2.2979   -1.0902 H   0  0  0  0  0  0  0  0  0  0  0  0
    3.1527    1.3983    0.0899 H   0  0  0  0  0  0  0  0  0  0  0  0
    0.2968    3.1109   -0.1924 H   0  0  0  0  0  0  0  0  0  0  0  0
   -2.5947    1.4089    0.1149 H   0  0  0  0  0  0  0  0  0  0  0  0
   -3.7077   -0.6646    1.0627 H   0  0  0  0  0  0  0  0  0  0  0  0
  1  2  1  0  0  0  0
  2  3  1  0  0  0  0
  2  4  1  0  0  0  0
  4  5  1  0  0  0  0
  4  6  1  0  0  0  0
  6  7  1  0  0  0  0
  6  8  1  0  0  0  0
  8  9  1  0  0  0  0
  8 10  1  0  0  0  0
 10 11  1  0  0  0  0
  2 12  1  0  0  0  0
 10 12  1  0  0  0  0
 10 13  1  0  0  0  0
  8 14  1  0  0  0  0
  6 15  1  0  0  0  0
  4 16  1  0  0  0  0
  1 17  1  0  0  0  0
  1 18  1  0  0  0  0
  1 19  1  0  0  0  0
 13 20  1  0  0  0  0
 14 21  1  0  0  0  0
 15 22  1  0  0  0  0
 16 23  1  0  0  0  0
 17 24  1  0  0  0  0
M  END
