14
 xtb: 6.7.1 (edcfbbe)
C           -2.49201108655009       -0.02910253161447       -0.32206895342684
C           -1.23580343463605       -0.71011089950398        0.19660875235652
C            0.02544138000678        0.01450597578762       -0.17665024682852
O            0.08482045414451        1.08288865294865       -0.76148319114681
O            1.12107194935466       -0.66327568675119        0.22562063852745
C            2.39605718293864       -0.03877159901411       -0.07173256162614
H           -2.59669718945078        0.97760341314517        0.09166449617434
H           -2.47550927976458        0.05021178825608       -1.41274166787947
H           -3.37373609202815       -0.60825986553474       -0.03591658457044
H           -1.15120452484169       -1.73707664887515       -0.17674473413319
H           -1.24889979126538       -0.79055096798011        1.29070050737053
H            2.47105004503541        0.92665046522733        0.43431713766793
H            2.51099158533302        0.09187562144981       -1.15030634428589
H            3.14996668956172       -0.72651908634986        0.30931672560839
