16
CONF1
C -2.7784302500 -0.4196952539 0.0000925863
O -1.7961772411 0.6283421136 -0.0000176287
C -0.4764404179 0.2519706710 -0.0000117594
C -0.0384223144 -1.0742660797 -0.0000281615
C 1.3324791373 -1.3368626530 -0.0000129871
C 2.2619939039 -0.3028457778 0.0000157999
C 1.8102790289 1.0182725669 0.0000233633
C 0.4513275539 1.2998264013 0.0000086361
H -2.6887767138 -1.0424132795 0.8972738559
H -2.6889304461 -1.0424692045 -0.8970661544
H -3.7460353632 0.0831341279 0.0001590243
H -0.7401348761 -1.8990496814 -0.0000535145
H 1.6680633970 -2.3695757812 -0.0000235888
H 3.3249163456 -0.5196113982 0.0000332979
H 2.5225990949 1.8376865872 0.0000462808
H 0.0913655148 2.3237442634 0.0000173640
