22
CONF1
C 1.1686559877 -0.6942337243 0.0004927204
C 1.1686450785 0.6942618164 0.0003970701
C 2.3687859695 1.3949589042 -0.0001099512
C 3.5833255045 0.6985610623 -0.0002700112
C 3.5833365966 -0.6984913468 0.0000152170
C 2.3688093623 -1.3949103140 0.0004126977
Cl 2.3203855407 -3.1234442269 0.0008053596
Cl 5.0738793130 -1.5742431265 -0.0000763733
Cl 5.0738529999 1.5743363854 -0.0008856241
Cl 2.3203319277 3.1234924432 -0.0004734556
O -0.0000090351 1.4160320887 0.0007648918
C -1.1686513907 0.6942427289 0.0004848284
C -1.1686402052 -0.6942529025 0.0003983802
C -2.3687812556 -1.3949500120 -0.0001096021
C -3.5833208459 -0.6985516769 -0.0002799970
C -3.5833321164 0.6985008858 -0.0000000551
C -2.3688044033 1.3949196053 0.0004002904
Cl -2.3203814606 3.1234535349 0.0007917985
Cl -5.0738733887 1.5742539716 -0.0000989826
Cl -5.0738476621 -1.5743286047 -0.0009008994
Cl -2.3203278949 -3.1234831384 -0.0004590782
O 0.0000137814 -1.4160227963 0.0007775081
