 xtb: 6.7.1 (edcfbbe)
          04062505533D

 31 32  0     0  0            999 V2000
    2.7173    2.5104    1.1852 C   0  0  0  0  0  0  0  0  0  0  0  0
    2.2631    1.7140   -0.0359 C   0  0  0  0  0  0  0  0  0  0  0  0
    3.0729    0.4039   -0.2068 C   0  0  0  0  0  0  0  0  0  0  0  0
    2.0328   -0.6607   -0.0374 C   0  0  0  0  0  0  0  0  0  0  0  0
    2.1227   -2.0344   -0.0802 C   0  0  0  0  0  0  0  0  0  0  0  0
    0.9697   -2.7847    0.1086 C   0  0  0  0  0  0  0  0  0  0  0  0
   -0.2477   -2.1683    0.3399 C   0  0  0  0  0  0  0  0  0  0  0  0
   -0.3427   -0.7832    0.3820 C   0  0  0  0  0  0  0  0  0  0  0  0
    0.8085   -0.0325    0.1853 C   0  0  0  0  0  0  0  0  0  0  0  0
    0.8787    1.3162    0.1898 O   0  0  0  0  0  0  0  0  0  0  0  0
   -1.5423   -0.1232    0.6605 O   0  0  0  0  0  0  0  0  0  0  0  0
   -2.6196   -0.3630   -0.1340 C   0  0  0  0  0  0  0  0  0  0  0  0
   -2.6010   -1.0964   -1.1060 O   0  0  0  0  0  0  0  0  0  0  0  0
   -3.6764    0.3195    0.3136 N   0  0  0  0  0  0  0  0  0  0  0  0
   -4.9648    0.3018   -0.3413 C   0  0  0  0  0  0  0  0  0  0  0  0
    2.2946    2.5747   -1.2965 C   0  0  0  0  0  0  0  0  0  0  0  0
    2.6579    1.8900    2.0764 H   0  0  0  0  0  0  0  0  0  0  0  0
    3.7404    2.8465    1.0477 H   0  0  0  0  0  0  0  0  0  0  0  0
    2.0721    3.3739    1.3222 H   0  0  0  0  0  0  0  0  0  0  0  0
    3.5388    0.3500   -1.1912 H   0  0  0  0  0  0  0  0  0  0  0  0
    3.8553    0.3190    0.5475 H   0  0  0  0  0  0  0  0  0  0  0  0
    3.0701   -2.5168   -0.2587 H   0  0  0  0  0  0  0  0  0  0  0  0
    1.0166   -3.8612    0.0775 H   0  0  0  0  0  0  0  0  0  0  0  0
   -1.1428   -2.7538    0.4798 H   0  0  0  0  0  0  0  0  0  0  0  0
   -3.5466    0.9105    1.1207 H   0  0  0  0  0  0  0  0  0  0  0  0
   -5.2213    1.2981   -0.7000 H   0  0  0  0  0  0  0  0  0  0  0  0
   -5.7307   -0.0460    0.3506 H   0  0  0  0  0  0  0  0  0  0  0  0
   -4.8997   -0.3814   -1.1857 H   0  0  0  0  0  0  0  0  0  0  0  0
    3.3098    2.9050   -1.4940 H   0  0  0  0  0  0  0  0  0  0  0  0
    1.6544    3.4431   -1.1661 H   0  0  0  0  0  0  0  0  0  0  0  0
    1.9299    2.0024   -2.1465 H   0  0  0  0  0  0  0  0  0  0  0  0
  1  2  1  0  0  0  0
  2  3  1  0  0  0  0
  3  4  1  0  0  0  0
  4  5  4  0  0  0  0
  5  6  4  0  0  0  0
  6  7  4  0  0  0  0
  7  8  4  0  0  0  0
  4  9  4  0  0  0  0
  8  9  4  0  0  0  0
  2 10  1  0  0  0  0
  9 10  1  0  0  0  0
  8 11  1  0  0  0  0
 11 12  1  0  0  0  0
 12 13  2  0  0  0  0
 12 14  4  0  0  0  0
 14 15  1  0  0  0  0
  2 16  1  0  0  0  0
  1 17  1  0  0  0  0
  1 18  1  0  0  0  0
  1 19  1  0  0  0  0
  3 20  1  0  0  0  0
  3 21  1  0  0  0  0
  5 22  1  0  0  0  0
  6 23  1  0  0  0  0
  7 24  1  0  0  0  0
 14 25  1  0  0  0  0
 15 26  1  0  0  0  0
 15 27  1  0  0  0  0
 15 28  1  0  0  0  0
 16 29  1  0  0  0  0
 16 30  1  0  0  0  0
 16 31  1  0  0  0  0
M  END
