 xtb: 6.7.1 (edcfbbe)
          04032521363D

 19 19  0     0  0            999 V2000
   -1.7944   -0.0001    0.1539 C   0  0  0  0  0  0  0  0  0  0  0  0
   -0.9452   -1.2522    0.3527 C   0  0  0  0  0  0  0  0  0  0  0  0
    0.2352   -1.2614   -0.6167 C   0  0  0  0  0  0  0  0  0  0  0  0
    1.0996   -0.0000   -0.4868 C   0  0  0  0  0  0  0  0  0  0  0  0
    0.2351    1.2613   -0.6165 C   0  0  0  0  0  0  0  0  0  0  0  0
   -0.9453    1.2519    0.3529 C   0  0  0  0  0  0  0  0  0  0  0  0
    1.8727   -0.0001    0.6999 O   0  0  0  0  0  0  0  0  0  0  0  0
   -2.6286   -0.0002    0.8578 H   0  0  0  0  0  0  0  0  0  0  0  0
   -2.2066   -0.0000   -0.8574 H   0  0  0  0  0  0  0  0  0  0  0  0
   -0.5827   -1.2886    1.3827 H   0  0  0  0  0  0  0  0  0  0  0  0
   -1.5512   -2.1450    0.1888 H   0  0  0  0  0  0  0  0  0  0  0  0
    0.8628   -2.1365   -0.4370 H   0  0  0  0  0  0  0  0  0  0  0  0
   -0.1367   -1.3141   -1.6411 H   0  0  0  0  0  0  0  0  0  0  0  0
    1.8523    0.0001   -1.2850 H   0  0  0  0  0  0  0  0  0  0  0  0
    0.8627    2.1365   -0.4365 H   0  0  0  0  0  0  0  0  0  0  0  0
   -0.1367    1.3143   -1.6409 H   0  0  0  0  0  0  0  0  0  0  0  0
   -0.5828    1.2882    1.3829 H   0  0  0  0  0  0  0  0  0  0  0  0
   -1.5514    2.1447    0.1892 H   0  0  0  0  0  0  0  0  0  0  0  0
    1.2704   -0.0002    1.4564 H   0  0  0  0  0  0  0  0  0  0  0  0
  1  2  1  0  0  0  0
  2  3  1  0  0  0  0
  3  4  1  0  0  0  0
  4  5  1  0  0  0  0
  1  6  1  0  0  0  0
  5  6  1  0  0  0  0
  4  7  1  0  0  0  0
  1  8  1  0  0  0  0
  1  9  1  0  0  0  0
  2 10  1  0  0  0  0
  2 11  1  0  0  0  0
  3 12  1  0  0  0  0
  3 13  1  0  0  0  0
  4 14  1  0  0  0  0
  5 15  1  0  0  0  0
  5 16  1  0  0  0  0
  6 17  1  0  0  0  0
  6 18  1  0  0  0  0
  7 19  1  0  0  0  0
M  END
