 xtb: 6.7.1 (edcfbbe)
          04042516023D

 14 13  0     0  0            999 V2000
   -2.1070   -0.5597   -0.7080 C   0  0  0  0  0  0  0  0  0  0  0  0
   -1.3594   -0.3144    0.6063 C   0  0  0  0  0  0  0  0  0  0  0  0
   -0.0086    0.2790    0.3062 C   0  0  0  0  0  0  0  0  0  0  0  0
    0.2621    1.4611    0.3525 O   0  0  0  0  0  0  0  0  0  0  0  0
    0.8671   -0.6524   -0.0529 O   0  0  0  0  0  0  0  0  0  0  0  0
    2.1810   -0.2217   -0.4161 C   0  0  0  0  0  0  0  0  0  0  0  0
   -1.5539   -1.2582   -1.3304 H   0  0  0  0  0  0  0  0  0  0  0  0
   -3.0881   -0.9749   -0.4988 H   0  0  0  0  0  0  0  0  0  0  0  0
   -2.2308    0.3738   -1.2518 H   0  0  0  0  0  0  0  0  0  0  0  0
   -1.2196   -1.2581    1.1318 H   0  0  0  0  0  0  0  0  0  0  0  0
   -1.9137    0.3858    1.2300 H   0  0  0  0  0  0  0  0  0  0  0  0
    2.6283    0.3419    0.4035 H   0  0  0  0  0  0  0  0  0  0  0  0
    2.1331    0.4157   -1.2998 H   0  0  0  0  0  0  0  0  0  0  0  0
    2.7413   -1.1289   -0.6191 H   0  0  0  0  0  0  0  0  0  0  0  0
  1  2  1  0  0  0  0
  2  3  1  0  0  0  0
  3  4  2  0  0  0  0
  3  5  1  0  0  0  0
  5  6  1  0  0  0  0
  1  7  1  0  0  0  0
  1  8  1  0  0  0  0
  1  9  1  0  0  0  0
  2 10  1  0  0  0  0
  2 11  1  0  0  0  0
  6 12  1  0  0  0  0
  6 13  1  0  0  0  0
  6 14  1  0  0  0  0
M  END
