 xtb: 6.7.1 (edcfbbe)
          04032522133D

 11 10  0     0  0            999 V2000
    2.0225    0.0384   -0.0004 C   0  0  0  0  0  0  0  0  0  0  0  0
    0.7414   -0.7863    0.0005 C   0  0  0  0  0  0  0  0  0  0  0  0
   -0.4920    0.0829    0.0001 C   0  0  0  0  0  0  0  0  0  0  0  0
   -0.4759    1.2916    0.0002 O   0  0  0  0  0  0  0  0  0  0  0  0
   -1.6609   -0.5630   -0.0003 O   0  0  0  0  0  0  0  0  0  0  0  0
    2.0588    0.6794    0.8767 H   0  0  0  0  0  0  0  0  0  0  0  0
    2.8905   -0.6139    0.0006 H   0  0  0  0  0  0  0  0  0  0  0  0
    2.0590    0.6771   -0.8792 H   0  0  0  0  0  0  0  0  0  0  0  0
    0.7077   -1.4261   -0.8842 H   0  0  0  0  0  0  0  0  0  0  0  0
    0.7080   -1.4243    0.8866 H   0  0  0  0  0  0  0  0  0  0  0  0
   -1.5774   -1.5341   -0.0004 H   0  0  0  0  0  0  0  0  0  0  0  0
  1  2  1  0  0  0  0
  2  3  1  0  0  0  0
  3  4  2  0  0  0  0
  3  5  1  0  0  0  0
  1  6  1  0  0  0  0
  1  7  1  0  0  0  0
  1  8  1  0  0  0  0
  2  9  1  0  0  0  0
  2 10  1  0  0  0  0
  5 11  1  0  0  0  0
M  END
