 xtb: 6.7.1 (edcfbbe)
          04062517363D

 26 27  0     0  0            999 V2000
   -3.5505   -0.5756   -1.5157 C   0  0  0  0  0  0  0  0  0  0  0  0
   -2.4165   -0.1466   -0.7269 N   0  0  0  0  0  0  0  0  0  0  0  0
   -2.3995   -0.2075    0.6095 C   0  0  0  0  0  0  0  0  0  0  0  0
   -3.3164   -0.6218    1.2967 O   0  0  0  0  0  0  0  0  0  0  0  0
   -1.2753    0.2156    1.2305 O   0  0  0  0  0  0  0  0  0  0  0  0
   -0.1967    0.7400    0.5061 C   0  0  0  0  0  0  0  0  0  0  0  0
   -0.2067    2.0539    0.1143 C   0  0  0  0  0  0  0  0  0  0  0  0
    0.9021    2.5944   -0.5543 C   0  0  0  0  0  0  0  0  0  0  0  0
    1.9952    1.8188   -0.8212 C   0  0  0  0  0  0  0  0  0  0  0  0
    2.0344    0.4646   -0.4269 C   0  0  0  0  0  0  0  0  0  0  0  0
    0.9202   -0.0962    0.2532 C   0  0  0  0  0  0  0  0  0  0  0  0
    0.9603   -1.4483    0.6513 C   0  0  0  0  0  0  0  0  0  0  0  0
    2.0593   -2.2162    0.3844 C   0  0  0  0  0  0  0  0  0  0  0  0
    3.1619   -1.6675   -0.2895 C   0  0  0  0  0  0  0  0  0  0  0  0
    3.1505   -0.3590   -0.6851 C   0  0  0  0  0  0  0  0  0  0  0  0
   -4.3230   -0.9176   -0.8301 H   0  0  0  0  0  0  0  0  0  0  0  0
   -3.2606   -1.3927   -2.1750 H   0  0  0  0  0  0  0  0  0  0  0  0
   -3.9301    0.2564   -2.1072 H   0  0  0  0  0  0  0  0  0  0  0  0
   -1.6040    0.1959   -1.2193 H   0  0  0  0  0  0  0  0  0  0  0  0
   -1.0683    2.6665    0.3315 H   0  0  0  0  0  0  0  0  0  0  0  0
    0.8766    3.6304   -0.8520 H   0  0  0  0  0  0  0  0  0  0  0  0
    2.8489    2.2323   -1.3355 H   0  0  0  0  0  0  0  0  0  0  0  0
    0.1094   -1.8581    1.1764 H   0  0  0  0  0  0  0  0  0  0  0  0
    2.0846   -3.2501    0.6928 H   0  0  0  0  0  0  0  0  0  0  0  0
    4.0202   -2.2900   -0.4901 H   0  0  0  0  0  0  0  0  0  0  0  0
    3.9976    0.0670   -1.2008 H   0  0  0  0  0  0  0  0  0  0  0  0
  1  2  1  0  0  0  0
  2  3  4  0  0  0  0
  3  4  2  0  0  0  0
  3  5  1  0  0  0  0
  5  6  1  0  0  0  0
  6  7  2  0  0  0  0
  7  8  4  0  0  0  0
  8  9  2  0  0  0  0
  9 10  4  0  0  0  0
  6 11  4  0  0  0  0
 10 11  4  0  0  0  0
 11 12  4  0  0  0  0
 12 13  2  0  0  0  0
 13 14  4  0  0  0  0
 10 15  4  0  0  0  0
 14 15  2  0  0  0  0
  1 16  1  0  0  0  0
  1 17  1  0  0  0  0
  1 18  1  0  0  0  0
  2 19  1  0  0  0  0
  7 20  1  0  0  0  0
  8 21  1  0  0  0  0
  9 22  1  0  0  0  0
 12 23  1  0  0  0  0
 13 24  1  0  0  0  0
 14 25  1  0  0  0  0
 15 26  1  0  0  0  0
M  END
