 xtb: 6.7.1 (edcfbbe)
          04062518003D

 24 24  0     0  0            999 V2000
   -2.4033   -0.8528    0.3897 C   0  0  0  0  0  0  0  0  0  0  0  0
   -0.9449   -0.4315    0.5979 C   0  0  0  0  0  0  0  0  0  0  0  0
   -0.6790   -0.5819    1.6563 H   0  0  0  0  0  0  0  0  0  0  0  0
   -0.7232    1.0551    0.2401 C   0  0  0  0  0  0  0  0  0  0  0  0
   -1.4917    1.3679   -0.4753 H   0  0  0  0  0  0  0  0  0  0  0  0
    0.6486    1.2397   -0.4399 C   0  0  0  0  0  0  0  0  0  0  0  0
    0.9605    2.2815   -0.2673 H   0  0  0  0  0  0  0  0  0  0  0  0
    1.6787    0.3123    0.2307 C   0  0  0  0  0  0  0  0  0  0  0  0
    2.6435    0.4042   -0.2844 H   0  0  0  0  0  0  0  0  0  0  0  0
    1.2306   -1.1603    0.0712 C   0  0  0  0  0  0  0  0  0  0  0  0
    1.4379   -1.6908    1.0291 H   0  0  0  0  0  0  0  0  0  0  0  0
   -0.1431   -1.2827   -0.2051 O   0  0  0  0  0  0  0  0  0  0  0  0
    1.9453   -1.7240   -0.9679 O   0  0  0  0  0  0  0  0  0  0  0  0
    1.7741    0.6989    1.5789 O   0  0  0  0  0  0  0  0  0  0  0  0
    0.5009    0.9773   -1.8074 O   0  0  0  0  0  0  0  0  0  0  0  0
   -0.8662    1.8802    1.3639 O   0  0  0  0  0  0  0  0  0  0  0  0
   -2.8509   -0.6229   -0.9201 O   0  0  0  0  0  0  0  0  0  0  0  0
   -3.0402   -0.2558    1.0446 H   0  0  0  0  0  0  0  0  0  0  0  0
   -2.5020   -1.9150    0.6494 H   0  0  0  0  0  0  0  0  0  0  0  0
    1.4955   -2.5279   -1.2709 H   0  0  0  0  0  0  0  0  0  0  0  0
    2.5855    0.3504    1.9747 H   0  0  0  0  0  0  0  0  0  0  0  0
    1.3413    1.1169   -2.2670 H   0  0  0  0  0  0  0  0  0  0  0  0
   -0.1162    1.7229    1.9610 H   0  0  0  0  0  0  0  0  0  0  0  0
   -2.2307   -1.0451   -1.5323 H   0  0  0  0  0  0  0  0  0  0  0  0
  1  2  1  0  0  0  0
  2  3  1  0  0  0  0
  2  4  1  0  0  0  0
  4  5  1  0  0  0  0
  4  6  1  0  0  0  0
  6  7  1  0  0  0  0
  6  8  1  0  0  0  0
  8  9  1  0  0  0  0
  8 10  1  0  0  0  0
 10 11  1  0  0  0  0
  2 12  1  0  0  0  0
 10 12  1  0  0  0  0
 10 13  1  0  0  0  0
  8 14  1  0  0  0  0
  6 15  1  0  0  0  0
  4 16  1  0  0  0  0
  1 17  1  0  0  0  0
  1 18  1  0  0  0  0
  1 19  1  0  0  0  0
 13 20  1  0  0  0  0
 14 21  1  0  0  0  0
 15 22  1  0  0  0  0
 16 23  1  0  0  0  0
 17 24  1  0  0  0  0
M  END
