 xtb: 6.7.1 (edcfbbe)
          04042519363D

 14 13  0     0  0            999 V2000
    1.9862    0.0249   -0.6501 C   0  0  0  0  0  0  0  0  0  0  0  0
    1.2757   -0.3191    0.6543 C   0  0  0  0  0  0  0  0  0  0  0  0
   -0.2258   -0.5412    0.5088 C   0  0  0  0  0  0  0  0  0  0  0  0
   -0.6562   -0.7688    1.4870 H   0  0  0  0  0  0  0  0  0  0  0  0
   -0.6093   -1.6095   -0.4968 C   0  0  0  0  0  0  0  0  0  0  0  0
   -1.0175    1.0217    0.0286 Cl  0  0  0  0  0  0  0  0  0  0  0  0
    1.5110    0.8797   -1.1256 H   0  0  0  0  0  0  0  0  0  0  0  0
    1.9680   -0.8139   -1.3395 H   0  0  0  0  0  0  0  0  0  0  0  0
    3.0232    0.2781   -0.4479 H   0  0  0  0  0  0  0  0  0  0  0  0
    1.4374    0.4849    1.3749 H   0  0  0  0  0  0  0  0  0  0  0  0
    1.7010   -1.2337    1.0723 H   0  0  0  0  0  0  0  0  0  0  0  0
   -0.1210   -2.5426   -0.2273 H   0  0  0  0  0  0  0  0  0  0  0  0
   -1.6853   -1.7626   -0.4942 H   0  0  0  0  0  0  0  0  0  0  0  0
   -0.3047   -1.3247   -1.4995 H   0  0  0  0  0  0  0  0  0  0  0  0
  1  2  1  0  0  0  0
  2  3  1  0  0  0  0
  3  4  1  0  0  0  0
  3  5  1  0  0  0  0
  3  6  1  0  0  0  0
  1  7  1  0  0  0  0
  1  8  1  0  0  0  0
  1  9  1  0  0  0  0
  2 10  1  0  0  0  0
  2 11  1  0  0  0  0
  5 12  1  0  0  0  0
  5 13  1  0  0  0  0
  5 14  1  0  0  0  0
M  END
