14
CONF1
C 2.1951199041 0.4804873299 0.1372741477
C 1.2339064717 -0.5977685777 -0.3487702943
C -0.1109806988 -0.5572563537 0.3627644716
H 0.0292614704 -0.5081706719 1.4448213222
C -1.0130005874 -1.7173120028 -0.0136997151
Cl -0.9623745089 0.9909762897 -0.0555385153
H 2.3888732521 0.3677643323 1.2014039155
H 1.7764065080 1.4695823060 -0.0325887165
H 3.1387873949 0.4101744397 -0.3963476021
H 1.6711442252 -1.5811223771 -0.1657445097
H 1.0737067879 -0.4929601188 -1.4232066892
H -0.5486029892 -2.6485875343 0.3001796804
H -1.9793178981 -1.6263526278 0.4751320245
H -1.1672292063 -1.7450134097 -1.0894412011
14
CONF3
C 1.9861527261 0.0249395393 -0.6500609588
C 1.2756937267 -0.3191418424 0.6542844835
C -0.2258446388 -0.5412461549 0.5087520303
H -0.6562216910 -0.7688342675 1.4869526615
C -0.6092733944 -1.6095313125 -0.4967543880
Cl -1.0175445453 1.0217379456 0.0286157556
H 1.5110215000 0.8797112711 -1.1256166963
H 1.9680167405 -0.8138927570 -1.3395385119
H 3.0232462346 0.2781382524 -0.4478501673
H 1.4374241835 0.4849053753 1.3749175889
H 1.7010181082 -1.2337083020 1.0722859997
H -0.1209888851 -2.5426394500 -0.2273025225
H -1.6852623387 -1.7625950057 -0.4941946925
H -0.3046860358 -1.3246648942 -1.4994669905
14
CONF2
C 2.4834171404 -0.4788481740 0.2033910637
C 1.2461543924 0.2308244810 -0.3396016504
C -0.0237560485 -0.1960328386 0.3857920041
H 0.0665108122 -0.0064745589 1.4577557907
C -0.4310288989 -1.6325526494 0.1262116312
Cl -1.3758737434 0.8908076970 -0.1567824936
H 2.4433450411 -1.5448855985 0.0016586249
H 2.5685538838 -0.3290469024 1.2766875773
H 3.3728724880 -0.0753670768 -0.2720773933
H 1.1369474613 0.0237533340 -1.4056276715
H 1.3708465600 1.3088082084 -0.2196436766
H 0.3180891518 -2.3004810078 0.5417111581
H -1.3861286760 -1.8481323868 0.5978432181
H -0.5192863128 -1.8160069140 -0.9416902466
