14
CONF1
C 2.2027194155 0.4933083464 0.1221894518
C 1.2303156426 -0.5878634638 -0.3331537029
C -0.1092729466 -0.5791708250 0.3763350306
H 0.0273835813 -0.5489810881 1.4607543928
C -1.0188315364 -1.7156181574 -0.0294730537
Cl -0.9949096058 1.0316126994 0.0113020574
H 2.3561325594 0.4494550425 1.2058200408
H 1.8350981468 1.4923514993 -0.1288449323
H 3.1752031392 0.3620954518 -0.3612740308
H 1.6626839823 -1.5770072819 -0.1287581517
H 1.0659626438 -0.5347881130 -1.4160609172
H -0.5339020567 -2.6606784233 0.2406567510
H -1.9806735616 -1.6661437882 0.4864284106
H -1.1922091570 -1.7141291683 -1.1096775346
14
CONF2
C 2.4718065995 -0.5024926354 0.1857750017
C 1.2455761096 0.2526712686 -0.3317697441
C -0.0248344873 -0.1873901307 0.3759949132
H 0.0310655176 0.0399307916 1.4439157749
C -0.4152300779 -1.6293603907 0.1487744931
Cl -1.4249374324 0.8984555329 -0.2272732005
H 2.4351407818 -1.5645289577 -0.0725073725
H 2.5581842195 -0.4180054895 1.2746199003
H 3.3803141888 -0.0830463239 -0.2564082412
H 1.1314686096 0.0910523358 -1.4099948798
H 1.3869736747 1.3264174889 -0.1722250695
H 0.3493927010 -2.2787358300 0.5886110642
H -1.3682928227 -1.8647715967 0.6282292146
H -0.4859608053 -1.8538316532 -0.9201140978
14
CONF3
C 1.9989748810 0.0233726492 -0.6526809531
C 1.2688540827 -0.3024820031 0.6450144536
C -0.2239515963 -0.5533674667 0.5137229744
H -0.6472815311 -0.7818249782 1.4942216888
C -0.6145324267 -1.6064833072 -0.4966726710
Cl -1.0829678611 1.0507204120 0.0523101461
H 1.5622338441 0.8973195011 -1.1459862697
H 1.9720047719 -0.8148386972 -1.3549288417
H 3.0492898816 0.2472085791 -0.4449647770
H 1.4307002481 0.4909120671 1.3819712713
H 1.6841147742 -1.2218402921 1.0806493670
H -0.1086901396 -2.5427697225 -0.2322918076
H -1.6922342628 -1.7843361854 -0.4857729090
H -0.3137640217 -1.3284109963 -1.5095684388
