 xtb: 6.7.1 (edcfbbe)
          04062518003D

 24 24  0     0  0            999 V2000
   -2.5598   -0.6502   -0.3629 C   0  0  0  0  0  0  0  0  0  0  0  0
   -1.1893   -0.2894    0.2176 C   0  0  0  0  0  0  0  0  0  0  0  0
   -1.2612   -0.2576    1.3155 H   0  0  0  0  0  0  0  0  0  0  0  0
   -0.7153    1.0823   -0.2809 C   0  0  0  0  0  0  0  0  0  0  0  0
   -0.7207    1.0852   -1.3821 H   0  0  0  0  0  0  0  0  0  0  0  0
    0.7248    1.3344    0.1886 C   0  0  0  0  0  0  0  0  0  0  0  0
    0.7211    1.4314    1.2879 H   0  0  0  0  0  0  0  0  0  0  0  0
    1.6251    0.1548   -0.2119 C   0  0  0  0  0  0  0  0  0  0  0  0
    1.6635    0.0988   -1.3060 H   0  0  0  0  0  0  0  0  0  0  0  0
    1.0145   -1.1491    0.3394 C   0  0  0  0  0  0  0  0  0  0  0  0
    0.9778   -1.0948    1.4421 H   0  0  0  0  0  0  0  0  0  0  0  0
   -0.2892   -1.3107   -0.1754 O   0  0  0  0  0  0  0  0  0  0  0  0
    1.7532   -2.2710    0.0388 O   0  0  0  0  0  0  0  0  0  0  0  0
    2.9499    0.3596    0.2055 O   0  0  0  0  0  0  0  0  0  0  0  0
    1.1663    2.5381   -0.3920 O   0  0  0  0  0  0  0  0  0  0  0  0
   -1.5945    2.0549    0.2161 O   0  0  0  0  0  0  0  0  0  0  0  0
   -3.0874   -1.8179    0.2069 O   0  0  0  0  0  0  0  0  0  0  0  0
   -2.4614   -0.7571   -1.4503 H   0  0  0  0  0  0  0  0  0  0  0  0
   -3.2579    0.1567   -0.1367 H   0  0  0  0  0  0  0  0  0  0  0  0
    1.7188   -2.4471   -0.9146 H   0  0  0  0  0  0  0  0  0  0  0  0
    3.0446    0.1528    1.1465 H   0  0  0  0  0  0  0  0  0  0  0  0
    2.1318    2.5840   -0.3149 H   0  0  0  0  0  0  0  0  0  0  0  0
   -1.2501    2.9288   -0.0256 H   0  0  0  0  0  0  0  0  0  0  0  0
   -2.4561   -2.5390    0.0659 H   0  0  0  0  0  0  0  0  0  0  0  0
  1  2  1  0  0  0  0
  2  3  1  0  0  0  0
  2  4  1  0  0  0  0
  4  5  1  0  0  0  0
  4  6  1  0  0  0  0
  6  7  1  0  0  0  0
  6  8  1  0  0  0  0
  8  9  1  0  0  0  0
  8 10  1  0  0  0  0
 10 11  1  0  0  0  0
  2 12  1  0  0  0  0
 10 12  1  0  0  0  0
 10 13  1  0  0  0  0
  8 14  1  0  0  0  0
  6 15  1  0  0  0  0
  4 16  1  0  0  0  0
  1 17  1  0  0  0  0
  1 18  1  0  0  0  0
  1 19  1  0  0  0  0
 13 20  1  0  0  0  0
 14 21  1  0  0  0  0
 15 22  1  0  0  0  0
 16 23  1  0  0  0  0
 17 24  1  0  0  0  0
M  END
