 xtb: 6.7.1 (edcfbbe)
          04062508313D

 24 24  0     0  0            999 V2000
   -3.5108    0.4869   -0.2247 C   0  0  0  0  0  0  0  0  0  0  0  0
   -2.1203    0.5616   -0.5525 O   0  0  0  0  0  0  0  0  0  0  0  0
   -1.2987   -0.2849    0.0601 C   0  0  0  0  0  0  0  0  0  0  0  0
   -1.6799   -1.1125    0.8608 O   0  0  0  0  0  0  0  0  0  0  0  0
    0.1372   -0.0404   -0.3357 C   0  0  0  0  0  0  0  0  0  0  0  0
    0.9670   -1.3293   -0.2517 C   0  0  0  0  0  0  0  0  0  0  0  0
    2.4224   -1.0437    0.1309 C   0  0  0  0  0  0  0  0  0  0  0  0
    2.8752    0.2763   -0.4835 C   0  0  0  0  0  0  0  0  0  0  0  0
    2.1092    1.4472    0.1450 C   0  0  0  0  0  0  0  0  0  0  0  0
    0.7117    1.0244    0.6116 C   0  0  0  0  0  0  0  0  0  0  0  0
   -3.6488    0.6214    0.8487 H   0  0  0  0  0  0  0  0  0  0  0  0
   -3.9084   -0.4865   -0.5141 H   0  0  0  0  0  0  0  0  0  0  0  0
   -3.9869    1.2854   -0.7847 H   0  0  0  0  0  0  0  0  0  0  0  0
    0.1333    0.3696   -1.3484 H   0  0  0  0  0  0  0  0  0  0  0  0
    0.5097   -1.9900    0.4882 H   0  0  0  0  0  0  0  0  0  0  0  0
    0.9303   -1.8370   -1.2167 H   0  0  0  0  0  0  0  0  0  0  0  0
    2.5250   -0.9879    1.2153 H   0  0  0  0  0  0  0  0  0  0  0  0
    3.0542   -1.8609   -0.2180 H   0  0  0  0  0  0  0  0  0  0  0  0
    3.9466    0.4136   -0.3354 H   0  0  0  0  0  0  0  0  0  0  0  0
    2.6927    0.2420   -1.5588 H   0  0  0  0  0  0  0  0  0  0  0  0
    2.6588    1.8337    1.0041 H   0  0  0  0  0  0  0  0  0  0  0  0
    2.0232    2.2550   -0.5826 H   0  0  0  0  0  0  0  0  0  0  0  0
    0.7520    0.6026    1.6171 H   0  0  0  0  0  0  0  0  0  0  0  0
    0.0503    1.8918    0.6394 H   0  0  0  0  0  0  0  0  0  0  0  0
  1  2  1  0  0  0  0
  2  3  1  0  0  0  0
  3  4  2  0  0  0  0
  3  5  1  0  0  0  0
  5  6  1  0  0  0  0
  6  7  1  0  0  0  0
  7  8  1  0  0  0  0
  8  9  1  0  0  0  0
  5 10  1  0  0  0  0
  9 10  1  0  0  0  0
  1 11  1  0  0  0  0
  1 12  1  0  0  0  0
  1 13  1  0  0  0  0
  5 14  1  0  0  0  0
  6 15  1  0  0  0  0
  6 16  1  0  0  0  0
  7 17  1  0  0  0  0
  7 18  1  0  0  0  0
  8 19  1  0  0  0  0
  8 20  1  0  0  0  0
  9 21  1  0  0  0  0
  9 22  1  0  0  0  0
 10 23  1  0  0  0  0
 10 24  1  0  0  0  0
M  END
