 xtb: 6.7.1 (edcfbbe)
          04062511563D

 31 31  0     0  0            999 V2000
    3.7190    0.3117    0.2132 C   0  0  0  0  0  0  0  0  0  0  0  0
    2.2948    0.1697   -0.3158 C   0  0  0  0  0  0  0  0  0  0  0  0
    2.3402   -0.0896   -1.3800 H   0  0  0  0  0  0  0  0  0  0  0  0
    1.5161    1.4749   -0.1662 C   0  0  0  0  0  0  0  0  0  0  0  0
    0.0797    1.3260   -0.6611 C   0  0  0  0  0  0  0  0  0  0  0  0
   -0.6646    0.2322    0.1114 C   0  0  0  0  0  0  0  0  0  0  0  0
   -0.6265    0.4835    1.1767 H   0  0  0  0  0  0  0  0  0  0  0  0
    0.1149   -1.0847   -0.0900 C   0  0  0  0  0  0  0  0  0  0  0  0
    0.1477   -1.3021   -1.1701 H   0  0  0  0  0  0  0  0  0  0  0  0
    1.5494   -0.9403    0.4194 C   0  0  0  0  0  0  0  0  0  0  0  0
   -0.4512   -2.1950    0.5891 O   0  0  0  0  0  0  0  0  0  0  0  0
   -2.1512    0.0669   -0.2883 C   0  0  0  0  0  0  0  0  0  0  0  0
   -2.9692   -0.3974    0.9208 C   0  0  0  0  0  0  0  0  0  0  0  0
   -2.7981    1.3356   -0.8461 C   0  0  0  0  0  0  0  0  0  0  0  0
    4.2474    1.0961   -0.3232 H   0  0  0  0  0  0  0  0  0  0  0  0
    3.7060    0.5660    1.2706 H   0  0  0  0  0  0  0  0  0  0  0  0
    4.2660   -0.6198    0.0911 H   0  0  0  0  0  0  0  0  0  0  0  0
    1.5071    1.7662    0.8865 H   0  0  0  0  0  0  0  0  0  0  0  0
    2.0137    2.2675   -0.7285 H   0  0  0  0  0  0  0  0  0  0  0  0
   -0.4300    2.2803   -0.5367 H   0  0  0  0  0  0  0  0  0  0  0  0
    0.0870    1.0782   -1.7253 H   0  0  0  0  0  0  0  0  0  0  0  0
    1.5146   -0.7277    1.4896 H   0  0  0  0  0  0  0  0  0  0  0  0
    2.0583   -1.8975    0.2899 H   0  0  0  0  0  0  0  0  0  0  0  0
   -1.2270   -2.5044    0.1050 H   0  0  0  0  0  0  0  0  0  0  0  0
   -2.2090   -0.6970   -1.0740 H   0  0  0  0  0  0  0  0  0  0  0  0
   -3.9658   -0.7068    0.6133 H   0  0  0  0  0  0  0  0  0  0  0  0
   -3.0715    0.4220    1.6299 H   0  0  0  0  0  0  0  0  0  0  0  0
   -2.4878   -1.2256    1.4329 H   0  0  0  0  0  0  0  0  0  0  0  0
   -3.8511    1.1425   -1.0404 H   0  0  0  0  0  0  0  0  0  0  0  0
   -2.3356    1.6461   -1.7782 H   0  0  0  0  0  0  0  0  0  0  0  0
   -2.7318    2.1501   -0.1288 H   0  0  0  0  0  0  0  0  0  0  0  0
  1  2  1  0  0  0  0
  2  3  1  0  0  0  0
  2  4  1  0  0  0  0
  4  5  1  0  0  0  0
  5  6  1  0  0  0  0
  6  7  1  0  0  0  0
  6  8  1  0  0  0  0
  8  9  1  0  0  0  0
  2 10  1  0  0  0  0
  8 10  1  0  0  0  0
  8 11  1  0  0  0  0
  6 12  1  0  0  0  0
 12 13  1  0  0  0  0
 12 14  1  0  0  0  0
  1 15  1  0  0  0  0
  1 16  1  0  0  0  0
  1 17  1  0  0  0  0
  4 18  1  0  0  0  0
  4 19  1  0  0  0  0
  5 20  1  0  0  0  0
  5 21  1  0  0  0  0
 10 22  1  0  0  0  0
 10 23  1  0  0  0  0
 11 24  1  0  0  0  0
 12 25  1  0  0  0  0
 13 26  1  0  0  0  0
 13 27  1  0  0  0  0
 13 28  1  0  0  0  0
 14 29  1  0  0  0  0
 14 30  1  0  0  0  0
 14 31  1  0  0  0  0
M  END
