 xtb: 6.7.1 (edcfbbe)
          04062518003D

 24 24  0     0  0            999 V2000
   -2.1774   -1.0167   -0.4458 C   0  0  0  0  0  0  0  0  0  0  0  0
   -1.1661   -0.2361    0.4024 C   0  0  0  0  0  0  0  0  0  0  0  0
   -1.6948    0.1392    1.2867 H   0  0  0  0  0  0  0  0  0  0  0  0
   -0.5957    0.9433   -0.4074 C   0  0  0  0  0  0  0  0  0  0  0  0
   -0.4403    0.6262   -1.4466 H   0  0  0  0  0  0  0  0  0  0  0  0
    0.7628    1.3227    0.1982 C   0  0  0  0  0  0  0  0  0  0  0  0
    0.6692    1.4366    1.2852 H   0  0  0  0  0  0  0  0  0  0  0  0
    1.7320    0.1637   -0.0863 C   0  0  0  0  0  0  0  0  0  0  0  0
    1.9996    0.1727   -1.1550 H   0  0  0  0  0  0  0  0  0  0  0  0
    1.0424   -1.1872    0.1986 C   0  0  0  0  0  0  0  0  0  0  0  0
    1.7071   -1.7626    0.8579 H   0  0  0  0  0  0  0  0  0  0  0  0
   -0.1378   -1.0595    0.9475 O   0  0  0  0  0  0  0  0  0  0  0  0
    0.8358   -1.8347   -1.0187 O   0  0  0  0  0  0  0  0  0  0  0  0
    2.8892    0.2394    0.7050 O   0  0  0  0  0  0  0  0  0  0  0  0
    1.2609    2.5479   -0.2712 O   0  0  0  0  0  0  0  0  0  0  0  0
   -1.4913    2.0169   -0.4837 O   0  0  0  0  0  0  0  0  0  0  0  0
   -2.9061   -1.8897    0.3864 O   0  0  0  0  0  0  0  0  0  0  0  0
   -1.6424   -1.5671   -1.2279 H   0  0  0  0  0  0  0  0  0  0  0  0
   -2.8418   -0.2773   -0.9129 H   0  0  0  0  0  0  0  0  0  0  0  0
    0.6254   -2.7684   -0.8633 H   0  0  0  0  0  0  0  0  0  0  0  0
    3.2596    1.1330    0.6280 H   0  0  0  0  0  0  0  0  0  0  0  0
    1.1319    2.6125   -1.2287 H   0  0  0  0  0  0  0  0  0  0  0  0
   -1.5889    2.4316    0.3863 H   0  0  0  0  0  0  0  0  0  0  0  0
   -3.5475   -2.3776   -0.1489 H   0  0  0  0  0  0  0  0  0  0  0  0
  1  2  1  0  0  0  0
  2  3  1  0  0  0  0
  2  4  1  0  0  0  0
  4  5  1  0  0  0  0
  4  6  1  0  0  0  0
  6  7  1  0  0  0  0
  6  8  1  0  0  0  0
  8  9  1  0  0  0  0
  8 10  1  0  0  0  0
 10 11  1  0  0  0  0
  2 12  1  0  0  0  0
 10 12  1  0  0  0  0
 10 13  1  0  0  0  0
  8 14  1  0  0  0  0
  6 15  1  0  0  0  0
  4 16  1  0  0  0  0
  1 17  1  0  0  0  0
  1 18  1  0  0  0  0
  1 19  1  0  0  0  0
 13 20  1  0  0  0  0
 14 21  1  0  0  0  0
 15 22  1  0  0  0  0
 16 23  1  0  0  0  0
 17 24  1  0  0  0  0
M  END
