 xtb: 6.7.1 (edcfbbe)
          04062505533D

 31 32  0     0  0            999 V2000
    1.2531    2.7068    1.0598 C   0  0  0  0  0  0  0  0  0  0  0  0
    1.5785    1.6865   -0.0275 C   0  0  0  0  0  0  0  0  0  0  0  0
    2.6087    0.6306    0.4474 C   0  0  0  0  0  0  0  0  0  0  0  0
    1.8635   -0.6607    0.3039 C   0  0  0  0  0  0  0  0  0  0  0  0
    2.2460   -1.9632    0.5384 C   0  0  0  0  0  0  0  0  0  0  0  0
    1.3264   -2.9796    0.3117 C   0  0  0  0  0  0  0  0  0  0  0  0
    0.0492   -2.6934   -0.1377 C   0  0  0  0  0  0  0  0  0  0  0  0
   -0.3448   -1.3801   -0.3728 C   0  0  0  0  0  0  0  0  0  0  0  0
    0.5795   -0.3655   -0.1518 C   0  0  0  0  0  0  0  0  0  0  0  0
    0.3516    0.9575   -0.3250 O   0  0  0  0  0  0  0  0  0  0  0  0
   -1.6098   -1.1445   -0.9132 O   0  0  0  0  0  0  0  0  0  0  0  0
   -2.4138   -0.1603   -0.4431 C   0  0  0  0  0  0  0  0  0  0  0  0
   -3.3237    0.2300   -1.1537 O   0  0  0  0  0  0  0  0  0  0  0  0
   -2.1939    0.2582    0.8073 N   0  0  0  0  0  0  0  0  0  0  0  0
   -2.9268    1.3500    1.4072 C   0  0  0  0  0  0  0  0  0  0  0  0
    2.0255    2.3781   -1.3132 C   0  0  0  0  0  0  0  0  0  0  0  0
    2.1362    3.2955    1.2880 H   0  0  0  0  0  0  0  0  0  0  0  0
    0.4633    3.3697    0.7162 H   0  0  0  0  0  0  0  0  0  0  0  0
    0.9170    2.2015    1.9621 H   0  0  0  0  0  0  0  0  0  0  0  0
    3.5052    0.6455   -0.1720 H   0  0  0  0  0  0  0  0  0  0  0  0
    2.9062    0.8021    1.4825 H   0  0  0  0  0  0  0  0  0  0  0  0
    3.2407   -2.1874    0.8873 H   0  0  0  0  0  0  0  0  0  0  0  0
    1.6061   -4.0056    0.4851 H   0  0  0  0  0  0  0  0  0  0  0  0
   -0.6658   -3.4778   -0.3248 H   0  0  0  0  0  0  0  0  0  0  0  0
   -1.4210   -0.1244    1.3308 H   0  0  0  0  0  0  0  0  0  0  0  0
   -2.2646    2.1999    1.5733 H   0  0  0  0  0  0  0  0  0  0  0  0
   -3.3595    1.0288    2.3531 H   0  0  0  0  0  0  0  0  0  0  0  0
   -3.7195    1.6370    0.7199 H   0  0  0  0  0  0  0  0  0  0  0  0
    2.9248    2.9580   -1.1303 H   0  0  0  0  0  0  0  0  0  0  0  0
    1.2392    3.0393   -1.6683 H   0  0  0  0  0  0  0  0  0  0  0  0
    2.2248    1.6376   -2.0848 H   0  0  0  0  0  0  0  0  0  0  0  0
  1  2  1  0  0  0  0
  2  3  1  0  0  0  0
  3  4  1  0  0  0  0
  4  5  4  0  0  0  0
  5  6  4  0  0  0  0
  6  7  4  0  0  0  0
  7  8  4  0  0  0  0
  4  9  4  0  0  0  0
  8  9  4  0  0  0  0
  2 10  1  0  0  0  0
  9 10  1  0  0  0  0
  8 11  1  0  0  0  0
 11 12  1  0  0  0  0
 12 13  2  0  0  0  0
 12 14  4  0  0  0  0
 14 15  1  0  0  0  0
  2 16  1  0  0  0  0
  1 17  1  0  0  0  0
  1 18  1  0  0  0  0
  1 19  1  0  0  0  0
  3 20  1  0  0  0  0
  3 21  1  0  0  0  0
  5 22  1  0  0  0  0
  6 23  1  0  0  0  0
  7 24  1  0  0  0  0
 14 25  1  0  0  0  0
 15 26  1  0  0  0  0
 15 27  1  0  0  0  0
 15 28  1  0  0  0  0
 16 29  1  0  0  0  0
 16 30  1  0  0  0  0
 16 31  1  0  0  0  0
M  END
