 xtb: 6.7.1 (edcfbbe)
          04032521483D

 17 17  0     0  0            999 V2000
    1.8416   -1.4401    0.0002 C   0  0  0  0  0  0  0  0  0  0  0  0
    0.5329   -0.7175    0.0001 C   0  0  0  0  0  0  0  0  0  0  0  0
   -0.6716   -1.4059    0.0001 C   0  0  0  0  0  0  0  0  0  0  0  0
   -1.8671   -0.7039    0.0000 C   0  0  0  0  0  0  0  0  0  0  0  0
   -1.8065    0.6781   -0.0001 C   0  0  0  0  0  0  0  0  0  0  0  0
   -0.6676    1.3531   -0.0002 N   0  0  0  0  0  0  0  0  0  0  0  0
    0.4792    0.6844   -0.0001 C   0  0  0  0  0  0  0  0  0  0  0  0
    1.7281    1.5070   -0.0001 C   0  0  0  0  0  0  0  0  0  0  0  0
    2.4242   -1.1707   -0.8792 H   0  0  0  0  0  0  0  0  0  0  0  0
    2.4246   -1.1698    0.8791 H   0  0  0  0  0  0  0  0  0  0  0  0
    1.6842   -2.5154    0.0008 H   0  0  0  0  0  0  0  0  0  0  0  0
   -0.6749   -2.4870    0.0002 H   0  0  0  0  0  0  0  0  0  0  0  0
   -2.8164   -1.2155    0.0000 H   0  0  0  0  0  0  0  0  0  0  0  0
   -2.7039    1.2829   -0.0002 H   0  0  0  0  0  0  0  0  0  0  0  0
    1.4655    2.5599   -0.0010 H   0  0  0  0  0  0  0  0  0  0  0  0
    2.3271    1.2856    0.8811 H   0  0  0  0  0  0  0  0  0  0  0  0
    2.3280    1.2843   -0.8803 H   0  0  0  0  0  0  0  0  0  0  0  0
  1  2  1  0  0  0  0
  2  3  4  0  0  0  0
  3  4  4  0  0  0  0
  4  5  4  0  0  0  0
  5  6  4  0  0  0  0
  2  7  4  0  0  0  0
  6  7  4  0  0  0  0
  7  8  1  0  0  0  0
  1  9  1  0  0  0  0
  1 10  1  0  0  0  0
  1 11  1  0  0  0  0
  3 12  1  0  0  0  0
  4 13  1  0  0  0  0
  5 14  1  0  0  0  0
  8 15  1  0  0  0  0
  8 16  1  0  0  0  0
  8 17  1  0  0  0  0
M  END
