24
 xtb: 6.7.1 (edcfbbe)
C           -3.45073415066594       -1.19669602028495       -0.00267643963558
C           -2.06268860654345       -0.61761337882783        0.00242661775074
C           -1.87355038572397        0.78553790009250        0.00055066156052
C           -0.62322164070839        1.37050800763514       -0.00053702097153
C            0.53082730163042        0.53056657515884       -0.00022085780922
C            1.85099602366994        1.04792814147091       -0.00010765517937
C            2.94174336881414        0.20861532199843       -0.00018948577461
C            2.76502732747021       -1.19165108330512       -0.00042801815233
C            1.49913380501723       -1.72737158708547        0.00031758907614
C            0.35356122570142       -0.89158203320801        0.00078792900660
C           -0.95239594107833       -1.43416252021700        0.00300520934520
C           -0.48329643518150        2.86537280208283       -0.00060446650236
H           -4.20860258698689       -0.41262121053311        0.06707009983678
H           -3.63468237866857       -1.76518921493305       -0.92095882791535
H           -3.59281216794674       -1.88667616212977        0.83561532134083
H           -2.75226368196430        1.42619490408444        0.00098189225018
H            2.00202064432980        2.12204600099900        0.00004329226458
H            3.94505012482723        0.62318145831059       -0.00009819263591
H            3.63328333993031       -1.84341073355087       -0.00103656799669
H            1.35512360799819       -2.80451017626307        0.00039216979560
H           -1.06773316469588       -2.51572948142301        0.00461179714538
H            0.06327051295765        3.21694989717860        0.88195224729837
H            0.07036123824033        3.21635525448188       -0.87890214370238
H           -1.46597603427767        3.34233574045890       -0.00467587127395
