 xtb: 6.7.1 (edcfbbe)
          04032521393D

 19 20  0     0  0            999 V2000
   -2.7339   -0.2567    0.0001 C   0  0  0  0  0  0  0  0  0  0  0  0
   -2.3436    1.0910    0.0001 C   0  0  0  0  0  0  0  0  0  0  0  0
   -1.0174    1.4233    0.0001 C   0  0  0  0  0  0  0  0  0  0  0  0
   -0.0270    0.4212    0.0001 C   0  0  0  0  0  0  0  0  0  0  0  0
   -0.4161   -0.9426    0.0000 C   0  0  0  0  0  0  0  0  0  0  0  0
   -1.7931   -1.2485    0.0000 C   0  0  0  0  0  0  0  0  0  0  0  0
    0.5749   -1.9468    0.0000 C   0  0  0  0  0  0  0  0  0  0  0  0
    1.8984   -1.6093    0.0000 C   0  0  0  0  0  0  0  0  0  0  0  0
    2.2960   -0.2653    0.0001 C   0  0  0  0  0  0  0  0  0  0  0  0
    1.3595    0.7389    0.0001 C   0  0  0  0  0  0  0  0  0  0  0  0
    1.6996    2.0551    0.0001 O   0  0  0  0  0  0  0  0  0  0  0  0
   -3.7852   -0.5037    0.0001 H   0  0  0  0  0  0  0  0  0  0  0  0
   -3.0982    1.8631    0.0001 H   0  0  0  0  0  0  0  0  0  0  0  0
   -0.7011    2.4553    0.0001 H   0  0  0  0  0  0  0  0  0  0  0  0
   -2.0900   -2.2873    0.0000 H   0  0  0  0  0  0  0  0  0  0  0  0
    0.2682   -2.9819    0.0000 H   0  0  0  0  0  0  0  0  0  0  0  0
    2.6581   -2.3764    0.0000 H   0  0  0  0  0  0  0  0  0  0  0  0
    3.3494   -0.0247    0.0001 H   0  0  0  0  0  0  0  0  0  0  0  0
    2.6635    2.1557    0.0001 H   0  0  0  0  0  0  0  0  0  0  0  0
  1  2  4  0  0  0  0
  2  3  2  0  0  0  0
  3  4  4  0  0  0  0
  4  5  4  0  0  0  0
  1  6  2  0  0  0  0
  5  6  4  0  0  0  0
  5  7  4  0  0  0  0
  7  8  2  0  0  0  0
  8  9  4  0  0  0  0
  4 10  4  0  0  0  0
  9 10  4  0  0  0  0
 10 11  1  0  0  0  0
  1 12  1  0  0  0  0
  2 13  1  0  0  0  0
  3 14  1  0  0  0  0
  6 15  1  0  0  0  0
  7 16  1  0  0  0  0
  8 17  1  0  0  0  0
  9 18  1  0  0  0  0
 11 19  1  0  0  0  0
M  END
