 xtb: 6.7.1 (edcfbbe)
          04062518003D

 24 24  0     0  0            999 V2000
   -2.2871   -0.8932    0.7867 C   0  0  0  0  0  0  0  0  0  0  0  0
   -0.8341   -0.4026    0.7338 C   0  0  0  0  0  0  0  0  0  0  0  0
   -0.5265   -0.1246    1.7508 H   0  0  0  0  0  0  0  0  0  0  0  0
   -0.6525    0.8092   -0.1974 C   0  0  0  0  0  0  0  0  0  0  0  0
   -0.8530    0.4838   -1.2278 H   0  0  0  0  0  0  0  0  0  0  0  0
    0.8049    1.3072   -0.1142 C   0  0  0  0  0  0  0  0  0  0  0  0
    0.8183    2.1405    0.5967 H   0  0  0  0  0  0  0  0  0  0  0  0
    1.7535    0.1905    0.3812 C   0  0  0  0  0  0  0  0  0  0  0  0
    2.7399    0.3717   -0.0690 H   0  0  0  0  0  0  0  0  0  0  0  0
    1.2632   -1.1610   -0.1530 C   0  0  0  0  0  0  0  0  0  0  0  0
    1.9158   -1.9610    0.2285 H   0  0  0  0  0  0  0  0  0  0  0  0
   -0.0316   -1.4918    0.2795 O   0  0  0  0  0  0  0  0  0  0  0  0
    1.3244   -1.0843   -1.5468 O   0  0  0  0  0  0  0  0  0  0  0  0
    1.8484    0.1007    1.7782 O   0  0  0  0  0  0  0  0  0  0  0  0
    1.2575    1.8401   -1.3312 O   0  0  0  0  0  0  0  0  0  0  0  0
   -1.4955    1.8771    0.1582 O   0  0  0  0  0  0  0  0  0  0  0  0
   -2.8661   -1.0581   -0.4834 O   0  0  0  0  0  0  0  0  0  0  0  0
   -2.8895   -0.1489    1.3093 H   0  0  0  0  0  0  0  0  0  0  0  0
   -2.3064   -1.8298    1.3542 H   0  0  0  0  0  0  0  0  0  0  0  0
    1.1608   -1.9557   -1.9381 H   0  0  0  0  0  0  0  0  0  0  0  0
    2.3100    0.8791    2.1231 H   0  0  0  0  0  0  0  0  0  0  0  0
    1.3028    1.1246   -1.9857 H   0  0  0  0  0  0  0  0  0  0  0  0
   -2.3914    1.6962   -0.1591 H   0  0  0  0  0  0  0  0  0  0  0  0
   -2.4402   -1.8064   -0.9228 H   0  0  0  0  0  0  0  0  0  0  0  0
  1  2  1  0  0  0  0
  2  3  1  0  0  0  0
  2  4  1  0  0  0  0
  4  5  1  0  0  0  0
  4  6  1  0  0  0  0
  6  7  1  0  0  0  0
  6  8  1  0  0  0  0
  8  9  1  0  0  0  0
  8 10  1  0  0  0  0
 10 11  1  0  0  0  0
  2 12  1  0  0  0  0
 10 12  1  0  0  0  0
 10 13  1  0  0  0  0
  8 14  1  0  0  0  0
  6 15  1  0  0  0  0
  4 16  1  0  0  0  0
  1 17  1  0  0  0  0
  1 18  1  0  0  0  0
  1 19  1  0  0  0  0
 13 20  1  0  0  0  0
 14 21  1  0  0  0  0
 15 22  1  0  0  0  0
 16 23  1  0  0  0  0
 17 24  1  0  0  0  0
M  END
