 xtb: 6.7.1 (edcfbbe)
          04032520583D

 12 12  0     0  0            999 V2000
   -0.1412   -1.2033   -0.0000 C   0  0  0  0  0  0  0  0  0  0  0  0
   -1.5255   -1.1369   -0.0000 C   0  0  0  0  0  0  0  0  0  0  0  0
   -2.2033   -0.0000   -0.0000 N   0  0  0  0  0  0  0  0  0  0  0  0
   -1.5255    1.1369   -0.0001 C   0  0  0  0  0  0  0  0  0  0  0  0
   -0.1412    1.2033   -0.0000 C   0  0  0  0  0  0  0  0  0  0  0  0
    0.5665   -0.0000   -0.0000 C   0  0  0  0  0  0  0  0  0  0  0  0
    1.9814   -0.0000   -0.0000 C   0  0  0  0  0  0  0  0  0  0  0  0
    3.1287    0.0001   -0.0001 N   0  0  0  0  0  0  0  0  0  0  0  0
    0.3761   -2.1490    0.0000 H   0  0  0  0  0  0  0  0  0  0  0  0
   -2.1238   -2.0370    0.0000 H   0  0  0  0  0  0  0  0  0  0  0  0
   -2.1238    2.0369   -0.0000 H   0  0  0  0  0  0  0  0  0  0  0  0
    0.3761    2.1490   -0.0001 H   0  0  0  0  0  0  0  0  0  0  0  0
  1  2  4  0  0  0  0
  2  3  4  0  0  0  0
  3  4  4  0  0  0  0
  4  5  4  0  0  0  0
  1  6  4  0  0  0  0
  5  6  4  0  0  0  0
  6  7  1  0  0  0  0
  7  8  3  0  0  0  0
  1  9  1  0  0  0  0
  2 10  1  0  0  0  0
  4 11  1  0  0  0  0
  5 12  1  0  0  0  0
M  END
