 xtb: 6.7.1 (edcfbbe)
          04042521533D

 17 17  0     0  0            999 V2000
   -2.6747    0.5755   -0.0043 C   0  0  0  0  0  0  0  0  0  0  0  0
   -1.8191   -0.5528    0.0040 O   0  0  0  0  0  0  0  0  0  0  0  0
   -0.4572   -0.4080    0.0015 C   0  0  0  0  0  0  0  0  0  0  0  0
    0.2426   -1.6130    0.0017 C   0  0  0  0  0  0  0  0  0  0  0  0
    1.6225   -1.6529    0.0006 C   0  0  0  0  0  0  0  0  0  0  0  0
    2.3380   -0.4695   -0.0011 C   0  0  0  0  0  0  0  0  0  0  0  0
    1.6593    0.7344   -0.0014 C   0  0  0  0  0  0  0  0  0  0  0  0
    0.2702    0.7913   -0.0000 C   0  0  0  0  0  0  0  0  0  0  0  0
   -0.3685    2.0030   -0.0003 O   0  0  0  0  0  0  0  0  0  0  0  0
   -2.5247    1.1839   -0.8980 H   0  0  0  0  0  0  0  0  0  0  0  0
   -2.5304    1.1924    0.8843 H   0  0  0  0  0  0  0  0  0  0  0  0
   -3.6806    0.1600   -0.0055 H   0  0  0  0  0  0  0  0  0  0  0  0
   -0.3430   -2.5186    0.0029 H   0  0  0  0  0  0  0  0  0  0  0  0
    2.1314   -2.6034    0.0008 H   0  0  0  0  0  0  0  0  0  0  0  0
    3.4161   -0.4775   -0.0019 H   0  0  0  0  0  0  0  0  0  0  0  0
    2.2139    1.6620   -0.0027 H   0  0  0  0  0  0  0  0  0  0  0  0
    0.2858    2.7178   -0.0013 H   0  0  0  0  0  0  0  0  0  0  0  0
  1  2  1  0  0  0  0
  2  3  1  0  0  0  0
  3  4  4  0  0  0  0
  4  5  4  0  0  0  0
  5  6  4  0  0  0  0
  6  7  4  0  0  0  0
  3  8  4  0  0  0  0
  7  8  4  0  0  0  0
  8  9  1  0  0  0  0
  1 10  1  0  0  0  0
  1 11  1  0  0  0  0
  1 12  1  0  0  0  0
  4 13  1  0  0  0  0
  5 14  1  0  0  0  0
  6 15  1  0  0  0  0
  7 16  1  0  0  0  0
  9 17  1  0  0  0  0
M  END
