 xtb: 6.7.1 (edcfbbe)
          04062518003D

 24 24  0     0  0            999 V2000
   -2.3952   -0.8327    0.4374 C   0  0  0  0  0  0  0  0  0  0  0  0
   -0.9305   -0.4047    0.5923 C   0  0  0  0  0  0  0  0  0  0  0  0
   -0.6269   -0.5591    1.6373 H   0  0  0  0  0  0  0  0  0  0  0  0
   -0.7250    1.0852    0.2295 C   0  0  0  0  0  0  0  0  0  0  0  0
   -1.5020    1.3955   -0.4792 H   0  0  0  0  0  0  0  0  0  0  0  0
    0.6503    1.2498   -0.4487 C   0  0  0  0  0  0  0  0  0  0  0  0
    0.9730    2.2909   -0.3426 H   0  0  0  0  0  0  0  0  0  0  0  0
    1.6720    0.3308    0.2532 C   0  0  0  0  0  0  0  0  0  0  0  0
    2.6506    0.4615   -0.2245 H   0  0  0  0  0  0  0  0  0  0  0  0
    1.2392   -1.1467    0.0451 C   0  0  0  0  0  0  0  0  0  0  0  0
    1.4399   -1.7151    0.9687 H   0  0  0  0  0  0  0  0  0  0  0  0
   -0.1421   -1.2311   -0.2560 O   0  0  0  0  0  0  0  0  0  0  0  0
    1.9470   -1.7767   -0.9563 O   0  0  0  0  0  0  0  0  0  0  0  0
    1.7115    0.6846    1.6146 O   0  0  0  0  0  0  0  0  0  0  0  0
    0.6077    0.9779   -1.8269 O   0  0  0  0  0  0  0  0  0  0  0  0
   -0.8715    1.9162    1.3481 O   0  0  0  0  0  0  0  0  0  0  0  0
   -2.8369   -0.7504   -0.8931 O   0  0  0  0  0  0  0  0  0  0  0  0
   -3.0162   -0.1475    1.0172 H   0  0  0  0  0  0  0  0  0  0  0  0
   -2.5150   -1.8507    0.8249 H   0  0  0  0  0  0  0  0  0  0  0  0
    1.7879   -1.3327   -1.8054 H   0  0  0  0  0  0  0  0  0  0  0  0
    2.5341    0.3774    2.0201 H   0  0  0  0  0  0  0  0  0  0  0  0
    0.0013    0.2360   -1.9749 H   0  0  0  0  0  0  0  0  0  0  0  0
   -0.1233    1.7619    1.9479 H   0  0  0  0  0  0  0  0  0  0  0  0
   -2.3735   -1.4251   -1.4097 H   0  0  0  0  0  0  0  0  0  0  0  0
  1  2  1  0  0  0  0
  2  3  1  0  0  0  0
  2  4  1  0  0  0  0
  4  5  1  0  0  0  0
  4  6  1  0  0  0  0
  6  7  1  0  0  0  0
  6  8  1  0  0  0  0
  8  9  1  0  0  0  0
  8 10  1  0  0  0  0
 10 11  1  0  0  0  0
  2 12  1  0  0  0  0
 10 12  1  0  0  0  0
 10 13  1  0  0  0  0
  8 14  1  0  0  0  0
  6 15  1  0  0  0  0
  4 16  1  0  0  0  0
  1 17  1  0  0  0  0
  1 18  1  0  0  0  0
  1 19  1  0  0  0  0
 13 20  1  0  0  0  0
 14 21  1  0  0  0  0
 15 22  1  0  0  0  0
 16 23  1  0  0  0  0
 17 24  1  0  0  0  0
M  END
