 xtb: 6.7.1 (edcfbbe)
          04032521503D

 24 24  0     0  0            999 V2000
   -2.9236   -0.0000   -0.0595 C   0  0  0  0  0  0  0  0  0  0  0  0
   -1.4501    0.0002    0.3388 C   0  0  0  0  0  0  0  0  0  0  0  0
   -0.7404   -1.2475   -0.1879 C   0  0  0  0  0  0  0  0  0  0  0  0
    0.7357   -1.2458    0.1994 C   0  0  0  0  0  0  0  0  0  0  0  0
    1.4448    0.0002   -0.3354 C   0  0  0  0  0  0  0  0  0  0  0  0
    0.7354    1.2457    0.2000 C   0  0  0  0  0  0  0  0  0  0  0  0
   -0.7403    1.2475   -0.1885 C   0  0  0  0  0  0  0  0  0  0  0  0
    2.9374   -0.0001    0.0354 C   0  0  0  0  0  0  0  0  0  0  0  0
   -3.4258   -0.8809    0.3338 H   0  0  0  0  0  0  0  0  0  0  0  0
   -3.4244    0.8842    0.3280 H   0  0  0  0  0  0  0  0  0  0  0  0
   -3.0231   -0.0035   -1.1430 H   0  0  0  0  0  0  0  0  0  0  0  0
   -1.3839    0.0004    1.4331 H   0  0  0  0  0  0  0  0  0  0  0  0
   -1.2242   -2.1424    0.2098 H   0  0  0  0  0  0  0  0  0  0  0  0
   -0.8291   -1.2767   -1.2768 H   0  0  0  0  0  0  0  0  0  0  0  0
    0.8245   -1.2679    1.2885 H   0  0  0  0  0  0  0  0  0  0  0  0
    1.2191   -2.1420   -0.1957 H   0  0  0  0  0  0  0  0  0  0  0  0
    1.3460    0.0005   -1.4266 H   0  0  0  0  0  0  0  0  0  0  0  0
    0.8233    1.2669    1.2891 H   0  0  0  0  0  0  0  0  0  0  0  0
    1.2192    2.1423   -0.1939 H   0  0  0  0  0  0  0  0  0  0  0  0
   -1.2243    2.1427    0.2083 H   0  0  0  0  0  0  0  0  0  0  0  0
   -0.8282    1.2759   -1.2774 H   0  0  0  0  0  0  0  0  0  0  0  0
    3.5641   -0.0064   -0.8522 H   0  0  0  0  0  0  0  0  0  0  0  0
    3.1890   -0.8756    0.6289 H   0  0  0  0  0  0  0  0  0  0  0  0
    3.1919    0.8815    0.6184 H   0  0  0  0  0  0  0  0  0  0  0  0
  1  2  1  0  0  0  0
  2  3  1  0  0  0  0
  3  4  1  0  0  0  0
  4  5  1  0  0  0  0
  5  6  1  0  0  0  0
  2  7  1  0  0  0  0
  6  7  1  0  0  0  0
  5  8  1  0  0  0  0
  1  9  1  0  0  0  0
  1 10  1  0  0  0  0
  1 11  1  0  0  0  0
  2 12  1  0  0  0  0
  3 13  1  0  0  0  0
  3 14  1  0  0  0  0
  4 15  1  0  0  0  0
  4 16  1  0  0  0  0
  5 17  1  0  0  0  0
  6 18  1  0  0  0  0
  6 19  1  0  0  0  0
  7 20  1  0  0  0  0
  7 21  1  0  0  0  0
  8 22  1  0  0  0  0
  8 23  1  0  0  0  0
  8 24  1  0  0  0  0
M  END
