 xtb: 6.7.1 (edcfbbe)
          04032521503D

  5  4  0     0  0            999 V2000
   -0.0001    0.9902   -0.0000 C   0  0  0  0  0  0  0  0  0  0  0  0
   -1.6129   -0.0946   -0.0000 Br  0  0  0  0  0  0  0  0  0  0  0  0
    1.6129   -0.0945   -0.0000 Br  0  0  0  0  0  0  0  0  0  0  0  0
   -0.0009    1.5956    0.9034 H   0  0  0  0  0  0  0  0  0  0  0  0
   -0.0002    1.5966   -0.9028 H   0  0  0  0  0  0  0  0  0  0  0  0
  1  2  1  0  0  0  0
  1  3  1  0  0  0  0
  1  4  1  0  0  0  0
  1  5  1  0  0  0  0
M  END
