22
 xtb: 6.7.1 (edcfbbe)
C            3.37554846956867       -0.08619119944605       -0.03983378453883
N            1.95682504374781       -0.40408115408037        0.11919192035377
C            1.67237244877828       -1.70233175940615        0.73084270456892
C            1.04726625809313        0.57362588725818       -0.06921303648231
O            1.38502664312982        1.74941709270880       -0.32692695981191
C           -0.40759171058114        0.23321069554088       -0.00688085146922
C           -0.94740643953028       -0.82816520146373       -0.73897395906173
C           -2.32108616306135       -1.05022213773256       -0.73434823240387
C           -3.16062943497777       -0.22724195634843        0.01299939629528
C           -2.62516520364405        0.83210688663267        0.74355241276252
C           -1.25540522343645        1.07125877511163        0.72274220693485
H            3.51692800938126        0.60916961786856       -0.86834666614472
H            3.91587588435864       -1.01122778728273       -0.25351244306364
H            3.78846978011258        0.36098903332863        0.87284085047426
H            1.85137127511799       -2.51849621227072        0.02242581427213
H            0.64256723577524       -1.74998506577868        1.08122587812698
H            2.33545005185292       -1.83877589154765        1.59241512767527
H           -0.29705602612820       -1.47230603701255       -1.32218827586238
H           -2.73563063130141       -1.86786711534755       -1.31539520083555
H           -4.23086742886703       -0.40806657815408        0.02263297926466
H           -3.27648982253764        1.47585349065850        1.32607074668149
H           -0.83483347480897        1.90353211040190        1.27844334346070
