 xtb: 6.7.1 (edcfbbe)
          04052500023D

 16 15  0     0  0            999 V2000
    1.2743    1.5092   -0.2213 C   0  0  0  0  0  0  0  0  0  0  0  0
    0.6887    0.1231   -0.4793 C   0  0  0  0  0  0  0  0  0  0  0  0
    1.4580   -0.9435    0.3118 C   0  0  0  0  0  0  0  0  0  0  0  0
   -0.7613    0.0544   -0.0338 C   0  0  0  0  0  0  0  0  0  0  0  0
   -1.1719    0.6632    0.9342 O   0  0  0  0  0  0  0  0  0  0  0  0
   -1.6421   -0.8359   -0.8589 C   0  0  0  0  0  0  0  0  0  0  0  0
    1.1465    1.7751    0.8257 H   0  0  0  0  0  0  0  0  0  0  0  0
    2.3332    1.5241   -0.4633 H   0  0  0  0  0  0  0  0  0  0  0  0
    0.7648    2.2562   -0.8258 H   0  0  0  0  0  0  0  0  0  0  0  0
    0.7479   -0.1142   -1.5443 H   0  0  0  0  0  0  0  0  0  0  0  0
    1.3786   -0.7432    1.3782 H   0  0  0  0  0  0  0  0  0  0  0  0
    2.5073   -0.9235    0.0305 H   0  0  0  0  0  0  0  0  0  0  0  0
    1.0629   -1.9369    0.1153 H   0  0  0  0  0  0  0  0  0  0  0  0
   -1.1464   -1.7824   -1.0544 H   0  0  0  0  0  0  0  0  0  0  0  0
   -1.8217   -0.3475   -1.8149 H   0  0  0  0  0  0  0  0  0  0  0  0
   -2.5927   -1.0004   -0.3592 H   0  0  0  0  0  0  0  0  0  0  0  0
  1  2  1  0  0  0  0
  2  3  1  0  0  0  0
  2  4  1  0  0  0  0
  4  5  2  0  0  0  0
  4  6  1  0  0  0  0
  1  7  1  0  0  0  0
  1  8  1  0  0  0  0
  1  9  1  0  0  0  0
  2 10  1  0  0  0  0
  3 11  1  0  0  0  0
  3 12  1  0  0  0  0
  3 13  1  0  0  0  0
  6 14  1  0  0  0  0
  6 15  1  0  0  0  0
  6 16  1  0  0  0  0
M  END
