 xtb: 6.7.1 (edcfbbe)
          04062518003D

 24 24  0     0  0            999 V2000
   -2.0067   -1.4198   -0.1560 C   0  0  0  0  0  0  0  0  0  0  0  0
   -1.0263   -0.5228    0.6129 C   0  0  0  0  0  0  0  0  0  0  0  0
   -1.5060   -0.2000    1.5452 H   0  0  0  0  0  0  0  0  0  0  0  0
   -0.6894    0.7334   -0.2052 C   0  0  0  0  0  0  0  0  0  0  0  0
   -0.6302    0.4796   -1.2757 H   0  0  0  0  0  0  0  0  0  0  0  0
    0.6811    1.2493    0.2389 C   0  0  0  0  0  0  0  0  0  0  0  0
    0.6820    1.3587    1.3352 H   0  0  0  0  0  0  0  0  0  0  0  0
    1.7326    0.2103   -0.1607 C   0  0  0  0  0  0  0  0  0  0  0  0
    1.8784    0.2769   -1.2494 H   0  0  0  0  0  0  0  0  0  0  0  0
    1.2358   -1.2147    0.1580 C   0  0  0  0  0  0  0  0  0  0  0  0
    2.0282   -1.7147    0.7309 H   0  0  0  0  0  0  0  0  0  0  0  0
    0.1309   -1.2402    1.0272 O   0  0  0  0  0  0  0  0  0  0  0  0
    0.9713   -1.8687   -1.0436 O   0  0  0  0  0  0  0  0  0  0  0  0
    2.9492    0.4023    0.5114 O   0  0  0  0  0  0  0  0  0  0  0  0
    1.0112    2.4703   -0.3722 O   0  0  0  0  0  0  0  0  0  0  0  0
   -1.6325    1.7555   -0.0017 O   0  0  0  0  0  0  0  0  0  0  0  0
   -3.1728   -0.6619   -0.3933 O   0  0  0  0  0  0  0  0  0  0  0  0
   -2.2234   -2.3050    0.4531 H   0  0  0  0  0  0  0  0  0  0  0  0
   -1.5425   -1.7302   -1.0999 H   0  0  0  0  0  0  0  0  0  0  0  0
    0.9472   -2.8281   -0.9050 H   0  0  0  0  0  0  0  0  0  0  0  0
    3.2531    1.3074    0.3428 H   0  0  0  0  0  0  0  0  0  0  0  0
    0.2357    3.0500   -0.3164 H   0  0  0  0  0  0  0  0  0  0  0  0
   -2.5130    1.3996   -0.2029 H   0  0  0  0  0  0  0  0  0  0  0  0
   -3.8246   -1.2102   -0.8521 H   0  0  0  0  0  0  0  0  0  0  0  0
  1  2  1  0  0  0  0
  2  3  1  0  0  0  0
  2  4  1  0  0  0  0
  4  5  1  0  0  0  0
  4  6  1  0  0  0  0
  6  7  1  0  0  0  0
  6  8  1  0  0  0  0
  8  9  1  0  0  0  0
  8 10  1  0  0  0  0
 10 11  1  0  0  0  0
  2 12  1  0  0  0  0
 10 12  1  0  0  0  0
 10 13  1  0  0  0  0
  8 14  1  0  0  0  0
  6 15  1  0  0  0  0
  4 16  1  0  0  0  0
  1 17  1  0  0  0  0
  1 18  1  0  0  0  0
  1 19  1  0  0  0  0
 13 20  1  0  0  0  0
 14 21  1  0  0  0  0
 15 22  1  0  0  0  0
 16 23  1  0  0  0  0
 17 24  1  0  0  0  0
M  END
