 xtb: 6.7.1 (edcfbbe)
          04062518003D

 24 24  0     0  0            999 V2000
   -2.4059   -0.7063   -0.0116 C   0  0  0  0  0  0  0  0  0  0  0  0
   -0.9779   -0.2834    0.3486 C   0  0  0  0  0  0  0  0  0  0  0  0
   -0.9399   -0.0126    1.4139 H   0  0  0  0  0  0  0  0  0  0  0  0
   -0.5133    0.9130   -0.4978 C   0  0  0  0  0  0  0  0  0  0  0  0
   -0.5123    0.6134   -1.5522 H   0  0  0  0  0  0  0  0  0  0  0  0
    0.9217    1.3234   -0.0950 C   0  0  0  0  0  0  0  0  0  0  0  0
    0.8668    2.1075    0.6688 H   0  0  0  0  0  0  0  0  0  0  0  0
    1.6881    0.1377    0.5308 C   0  0  0  0  0  0  0  0  0  0  0  0
    2.7523    0.2723    0.2946 H   0  0  0  0  0  0  0  0  0  0  0  0
    1.2113   -1.1684   -0.1227 C   0  0  0  0  0  0  0  0  0  0  0  0
    1.7474   -2.0321    0.3020 H   0  0  0  0  0  0  0  0  0  0  0  0
   -0.1429   -1.4248    0.1369 O   0  0  0  0  0  0  0  0  0  0  0  0
    1.4714   -1.0556   -1.4905 O   0  0  0  0  0  0  0  0  0  0  0  0
    1.4666    0.1433    1.9164 O   0  0  0  0  0  0  0  0  0  0  0  0
    1.6321    1.8881   -1.1630 O   0  0  0  0  0  0  0  0  0  0  0  0
   -1.4154    1.9843   -0.4273 O   0  0  0  0  0  0  0  0  0  0  0  0
   -2.9390   -1.6234    0.9082 O   0  0  0  0  0  0  0  0  0  0  0  0
   -2.4051   -1.1272   -1.0250 H   0  0  0  0  0  0  0  0  0  0  0  0
   -3.0557    0.1698    0.0079 H   0  0  0  0  0  0  0  0  0  0  0  0
    1.2468   -1.8832   -1.9429 H   0  0  0  0  0  0  0  0  0  0  0  0
    2.0610   -0.4817    2.3561 H   0  0  0  0  0  0  0  0  0  0  0  0
    1.7407    1.2184   -1.8564 H   0  0  0  0  0  0  0  0  0  0  0  0
   -1.4006    2.3686    0.4615 H   0  0  0  0  0  0  0  0  0  0  0  0
   -2.3514   -2.3915    0.9495 H   0  0  0  0  0  0  0  0  0  0  0  0
  1  2  1  0  0  0  0
  2  3  1  0  0  0  0
  2  4  1  0  0  0  0
  4  5  1  0  0  0  0
  4  6  1  0  0  0  0
  6  7  1  0  0  0  0
  6  8  1  0  0  0  0
  8  9  1  0  0  0  0
  8 10  1  0  0  0  0
 10 11  1  0  0  0  0
  2 12  1  0  0  0  0
 10 12  1  0  0  0  0
 10 13  1  0  0  0  0
  8 14  1  0  0  0  0
  6 15  1  0  0  0  0
  4 16  1  0  0  0  0
  1 17  1  0  0  0  0
  1 18  1  0  0  0  0
  1 19  1  0  0  0  0
 13 20  1  0  0  0  0
 14 21  1  0  0  0  0
 15 22  1  0  0  0  0
 16 23  1  0  0  0  0
 17 24  1  0  0  0  0
M  END
