15
 xtb: 6.7.1 (edcfbbe)
C            1.45066554288714        0.00019079153418       -0.55894441259980
C            0.97736320936382        1.19707501368402        0.21176299055531
C           -0.33594638307666        1.51605039439713        0.26980326857370
C           -1.40786222557481        0.68429613695311       -0.20073934238391
C           -1.40769619718921       -0.68463453432805       -0.20079924727890
C           -0.33557990323495       -1.51616760391123        0.26967949869856
C            0.97765242821295       -1.19686824063197        0.21166902109216
H            2.53588813412190        0.00032569013888       -0.66943601662105
H            0.99167250365547        0.00017374605188       -1.55771167847027
H            1.71127751671398        1.82198718949343        0.71501349548761
H           -0.62114429415773        2.46156285661545        0.72808145470769
H           -2.35070309087181        1.17977435277521       -0.42305666360541
H           -2.35041694522087       -1.18031995009274       -0.42315995980662
H           -0.62055023243567       -2.46178496527562        0.72788329087746
H            1.71171491054777       -1.82163952482391        0.71487580511885
