 xtb: 6.7.1 (edcfbbe)
          04032521303D

 19 19  0     0  0            999 V2000
   -1.8265   -0.0589   -0.3814 C   0  0  0  0  0  0  0  0  0  0  0  0
   -1.1585   -1.1644    0.4293 C   0  0  0  0  0  0  0  0  0  0  0  0
    0.3099   -1.3068    0.0184 C   0  0  0  0  0  0  0  0  0  0  0  0
    0.9374    0.0433   -0.3598 C   0  0  0  0  0  0  0  0  0  0  0  0
    0.2479    1.1743    0.4055 C   0  0  0  0  0  0  0  0  0  0  0  0
   -1.2165    1.3043   -0.0293 C   0  0  0  0  0  0  0  0  0  0  0  0
    2.3218   -0.0414   -0.0620 O   0  0  0  0  0  0  0  0  0  0  0  0
   -2.8997   -0.0449   -0.1878 H   0  0  0  0  0  0  0  0  0  0  0  0
   -1.6854   -0.2700   -1.4430 H   0  0  0  0  0  0  0  0  0  0  0  0
   -1.2327   -0.9219    1.4902 H   0  0  0  0  0  0  0  0  0  0  0  0
   -1.6721   -2.1132    0.2710 H   0  0  0  0  0  0  0  0  0  0  0  0
    0.8972   -1.7207    0.8397 H   0  0  0  0  0  0  0  0  0  0  0  0
    0.4028   -1.9891   -0.8274 H   0  0  0  0  0  0  0  0  0  0  0  0
    0.8155    0.2223   -1.4401 H   0  0  0  0  0  0  0  0  0  0  0  0
    0.3167    0.9529    1.4718 H   0  0  0  0  0  0  0  0  0  0  0  0
    0.7710    2.1165    0.2299 H   0  0  0  0  0  0  0  0  0  0  0  0
   -1.7822    1.7663    0.7810 H   0  0  0  0  0  0  0  0  0  0  0  0
   -1.2857    1.9641   -0.8956 H   0  0  0  0  0  0  0  0  0  0  0  0
    2.7510    0.7937   -0.2914 H   0  0  0  0  0  0  0  0  0  0  0  0
  1  2  1  0  0  0  0
  2  3  1  0  0  0  0
  3  4  1  0  0  0  0
  4  5  1  0  0  0  0
  1  6  1  0  0  0  0
  5  6  1  0  0  0  0
  4  7  1  0  0  0  0
  1  8  1  0  0  0  0
  1  9  1  0  0  0  0
  2 10  1  0  0  0  0
  2 11  1  0  0  0  0
  3 12  1  0  0  0  0
  3 13  1  0  0  0  0
  4 14  1  0  0  0  0
  5 15  1  0  0  0  0
  5 16  1  0  0  0  0
  6 17  1  0  0  0  0
  6 18  1  0  0  0  0
  7 19  1  0  0  0  0
M  END
