 xtb: 6.7.1 (edcfbbe)
          04032521543D

  8  7  0     0  0            999 V2000
   -2.2306    0.4186   -0.0000 C   0  0  0  0  0  0  0  0  0  0  0  0
   -1.1992   -0.6858    0.0000 C   0  0  0  0  0  0  0  0  0  0  0  0
    0.6417    0.0471   -0.0000 Br  0  0  0  0  0  0  0  0  0  0  0  0
   -2.1281    1.0445   -0.8833 H   0  0  0  0  0  0  0  0  0  0  0  0
   -3.2223   -0.0277   -0.0003 H   0  0  0  0  0  0  0  0  0  0  0  0
   -2.1286    1.0446    0.8834 H   0  0  0  0  0  0  0  0  0  0  0  0
   -1.2591   -1.3054   -0.8924 H   0  0  0  0  0  0  0  0  0  0  0  0
   -1.2592   -1.3050    0.8927 H   0  0  0  0  0  0  0  0  0  0  0  0
  1  2  1  0  0  0  0
  2  3  1  0  0  0  0
  1  4  1  0  0  0  0
  1  5  1  0  0  0  0
  1  6  1  0  0  0  0
  2  7  1  0  0  0  0
  2  8  1  0  0  0  0
M  END
