 xtb: 6.7.1 (edcfbbe)
          04032521053D

 13 13  0     0  0            999 V2000
   -2.3122    0.0052   -0.0001 C   0  0  0  0  0  0  0  0  0  0  0  0
   -1.6124    1.2011    0.0001 C   0  0  0  0  0  0  0  0  0  0  0  0
   -0.2302    1.1987    0.0001 C   0  0  0  0  0  0  0  0  0  0  0  0
    0.4574   -0.0086   -0.0003 C   0  0  0  0  0  0  0  0  0  0  0  0
   -0.2384   -1.2095   -0.0001 C   0  0  0  0  0  0  0  0  0  0  0  0
   -1.6217   -1.1953    0.0000 C   0  0  0  0  0  0  0  0  0  0  0  0
    2.2282    0.0431    0.0000 S   0  0  0  0  0  0  0  0  0  0  0  0
   -3.3911    0.0096    0.0002 H   0  0  0  0  0  0  0  0  0  0  0  0
   -2.1423    2.1414   -0.0002 H   0  0  0  0  0  0  0  0  0  0  0  0
    0.3236    2.1257   -0.0002 H   0  0  0  0  0  0  0  0  0  0  0  0
    0.2939   -2.1485    0.0002 H   0  0  0  0  0  0  0  0  0  0  0  0
   -2.1604   -2.1305    0.0009 H   0  0  0  0  0  0  0  0  0  0  0  0
    2.4178   -1.2715    0.0002 H   0  0  0  0  0  0  0  0  0  0  0  0
  1  2  4  0  0  0  0
  2  3  4  0  0  0  0
  3  4  4  0  0  0  0
  4  5  4  0  0  0  0
  1  6  4  0  0  0  0
  5  6  4  0  0  0  0
  4  7  1  0  0  0  0
  1  8  1  0  0  0  0
  2  9  1  0  0  0  0
  3 10  1  0  0  0  0
  5 11  1  0  0  0  0
  6 12  1  0  0  0  0
  7 13  1  0  0  0  0
M  END
