24
 xtb: 6.7.1 (edcfbbe)
C           -2.54994369910135       -0.95174580457342        0.35853114182761
C           -1.13084342915076       -0.48013082548584        0.61235371608162
H           -0.97191309518467       -0.43785629110371        1.70279922458695
C           -0.81999910645699        0.89263560222912        0.00646263904197
H           -1.02074481049135        0.86941165424336       -1.07290608118862
C            0.64390959592324        1.24762962477059        0.23156916236729
H            0.81425384544221        1.36644717404554        1.31446103100668
C            1.54109875696152        0.13895768834106       -0.28512000913606
H            1.43761757049101        0.06489190605350       -1.38041985595568
C            1.12146103443800       -1.20115863504107        0.32584282314266
H            1.27244917280137       -1.19209703307159        1.41559595480066
O           -0.25213785127113       -1.46185952715432        0.02884475199603
O            1.88382366501007       -2.26794808847472       -0.17488763577710
O            2.88659737183596        0.45506358963804        0.07622855696685
O            0.99403675334018        2.45617191828932       -0.45222568360574
O           -1.59398120746897        1.91984459065239        0.63919967314861
O           -2.88847508123590       -0.99333225759753       -1.03270716647081
H           -3.24923644248026       -0.25727839070848        0.83300010785362
H           -2.68170623859264       -1.93962255489556        0.82020470274791
H            1.87249396470079       -2.21952452027932       -1.14333854262222
H            3.45719878621962       -0.21944525987957       -0.31646511325721
H            0.41395540360085        3.14936483788060       -0.10832950039490
H           -2.46204172788233        1.94406934379887        0.21704338909734
H           -2.30387897281181       -1.63796664637669       -1.45304257285271
