15
CONF1
C 1.8947826334 -1.4645776963 0.0000062843
C 2.5808626220 -0.2472598698 0.0000172721
C 1.8968166311 0.9449452513 0.0000190579
C 0.4954435424 0.9794021050 -0.0000750235
C -0.1927730808 -0.2574513177 -0.0000612666
C 0.5247693696 -1.4662372987 -0.0000309767
N -1.5931837128 -0.3242396181 0.0000058240
O -2.1449972958 -1.4160152349 0.0000360766
O -2.2428478438 0.7287681204 0.0000131542
O -0.0883916261 2.1711884889 0.0000166190
H 2.4379845536 -2.3944315472 0.0000172300
H 3.6589519853 -0.2411255470 0.0001531803
H 2.4112250745 1.8919381735 0.0002371459
H -0.0412153860 -2.3847511174 0.0000145309
H -1.0694301339 2.0863633046 -0.0000629056
