 xtb: 6.7.1 (edcfbbe)
          04042521173D

 15 14  0     0  0            999 V2000
   -2.3812    0.0787   -0.0103 C   0  0  0  0  0  0  0  0  0  0  0  0
   -0.9095    0.4685    0.0541 C   0  0  0  0  0  0  0  0  0  0  0  0
    0.0032   -0.7100   -0.1108 C   0  0  0  0  0  0  0  0  0  0  0  0
    1.3258   -0.6337   -0.0796 C   0  0  0  0  0  0  0  0  0  0  0  0
    2.0797    0.6430    0.1247 C   0  0  0  0  0  0  0  0  0  0  0  0
   -2.6120   -0.3798   -0.9695 H   0  0  0  0  0  0  0  0  0  0  0  0
   -3.0141    0.9544    0.1127 H   0  0  0  0  0  0  0  0  0  0  0  0
   -2.6214   -0.6321    0.7774 H   0  0  0  0  0  0  0  0  0  0  0  0
   -0.6906    1.2046   -0.7260 H   0  0  0  0  0  0  0  0  0  0  0  0
   -0.7004    0.9543    1.0124 H   0  0  0  0  0  0  0  0  0  0  0  0
   -0.4771   -1.6665   -0.2635 H   0  0  0  0  0  0  0  0  0  0  0  0
    1.9163   -1.5301   -0.2075 H   0  0  0  0  0  0  0  0  0  0  0  0
    1.7979    1.1046    1.0709 H   0  0  0  0  0  0  0  0  0  0  0  0
    1.8440    1.3549   -0.6663 H   0  0  0  0  0  0  0  0  0  0  0  0
    3.1513    0.4682    0.1277 H   0  0  0  0  0  0  0  0  0  0  0  0
  1  2  1  0  0  0  0
  2  3  1  0  0  0  0
  3  4  2  0  0  0  0
  4  5  1  0  0  0  0
  1  6  1  0  0  0  0
  1  7  1  0  0  0  0
  1  8  1  0  0  0  0
  2  9  1  0  0  0  0
  2 10  1  0  0  0  0
  3 11  1  0  0  0  0
  4 12  1  0  0  0  0
  5 13  1  0  0  0  0
  5 14  1  0  0  0  0
  5 15  1  0  0  0  0
M  END
