 xtb: 6.7.1 (edcfbbe)
          04062518003D

 24 24  0     0  0            999 V2000
   -2.3793   -0.8548    0.4855 C   0  0  0  0  0  0  0  0  0  0  0  0
   -0.9182   -0.4092    0.6223 C   0  0  0  0  0  0  0  0  0  0  0  0
   -0.6176   -0.4976    1.6764 H   0  0  0  0  0  0  0  0  0  0  0  0
   -0.7306    1.0545    0.1698 C   0  0  0  0  0  0  0  0  0  0  0  0
   -1.4789    1.2812   -0.5985 H   0  0  0  0  0  0  0  0  0  0  0  0
    0.6839    1.2468   -0.4249 C   0  0  0  0  0  0  0  0  0  0  0  0
    0.9823    2.2893   -0.2398 H   0  0  0  0  0  0  0  0  0  0  0  0
    1.6646    0.3190    0.3045 C   0  0  0  0  0  0  0  0  0  0  0  0
    2.6663    0.4595   -0.1204 H   0  0  0  0  0  0  0  0  0  0  0  0
    1.2573   -1.1505    0.0202 C   0  0  0  0  0  0  0  0  0  0  0  0
    1.5692   -1.7848    0.8677 H   0  0  0  0  0  0  0  0  0  0  0  0
   -0.1352   -1.2871   -0.1721 O   0  0  0  0  0  0  0  0  0  0  0  0
    1.8987   -1.6516   -1.0947 O   0  0  0  0  0  0  0  0  0  0  0  0
    1.6334    0.6425    1.6724 O   0  0  0  0  0  0  0  0  0  0  0  0
    0.7648    0.9337   -1.7915 O   0  0  0  0  0  0  0  0  0  0  0  0
   -0.9710    1.9551    1.2181 O   0  0  0  0  0  0  0  0  0  0  0  0
   -2.8301   -0.7997   -0.8425 O   0  0  0  0  0  0  0  0  0  0  0  0
   -3.0092   -0.1714    1.0580 H   0  0  0  0  0  0  0  0  0  0  0  0
   -2.4797   -1.8703    0.8870 H   0  0  0  0  0  0  0  0  0  0  0  0
    1.6100   -1.1387   -1.8699 H   0  0  0  0  0  0  0  0  0  0  0  0
    2.4136    0.2846    2.1184 H   0  0  0  0  0  0  0  0  0  0  0  0
    0.2159    1.5459   -2.3016 H   0  0  0  0  0  0  0  0  0  0  0  0
   -0.2938    1.8234    1.9006 H   0  0  0  0  0  0  0  0  0  0  0  0
   -2.2702   -1.3861   -1.3722 H   0  0  0  0  0  0  0  0  0  0  0  0
  1  2  1  0  0  0  0
  2  3  1  0  0  0  0
  2  4  1  0  0  0  0
  4  5  1  0  0  0  0
  4  6  1  0  0  0  0
  6  7  1  0  0  0  0
  6  8  1  0  0  0  0
  8  9  1  0  0  0  0
  8 10  1  0  0  0  0
 10 11  1  0  0  0  0
  2 12  1  0  0  0  0
 10 12  1  0  0  0  0
 10 13  1  0  0  0  0
  8 14  1  0  0  0  0
  6 15  1  0  0  0  0
  4 16  1  0  0  0  0
  1 17  1  0  0  0  0
  1 18  1  0  0  0  0
  1 19  1  0  0  0  0
 13 20  1  0  0  0  0
 14 21  1  0  0  0  0
 15 22  1  0  0  0  0
 16 23  1  0  0  0  0
 17 24  1  0  0  0  0
M  END
