 xtb: 6.7.1 (edcfbbe)
          04032522133D

 11 10  0     0  0            999 V2000
    1.6861   -1.0704    0.1618 C   0  0  0  0  0  0  0  0  0  0  0  0
    1.0396    0.2596   -0.2102 C   0  0  0  0  0  0  0  0  0  0  0  0
   -0.4590    0.3418   -0.0394 C   0  0  0  0  0  0  0  0  0  0  0  0
   -1.0506    1.4007   -0.0706 O   0  0  0  0  0  0  0  0  0  0  0  0
   -1.1381   -0.7847    0.1355 O   0  0  0  0  0  0  0  0  0  0  0  0
    1.3909   -1.8661   -0.5183 H   0  0  0  0  0  0  0  0  0  0  0  0
    2.7655   -0.9689    0.0910 H   0  0  0  0  0  0  0  0  0  0  0  0
    1.4461   -1.3495    1.1853 H   0  0  0  0  0  0  0  0  0  0  0  0
    1.4619    1.0752    0.3796 H   0  0  0  0  0  0  0  0  0  0  0  0
    1.2400    0.5004   -1.2576 H   0  0  0  0  0  0  0  0  0  0  0  0
   -0.5732   -1.5805    0.1360 H   0  0  0  0  0  0  0  0  0  0  0  0
  1  2  1  0  0  0  0
  2  3  1  0  0  0  0
  3  4  2  0  0  0  0
  3  5  1  0  0  0  0
  1  6  1  0  0  0  0
  1  7  1  0  0  0  0
  1  8  1  0  0  0  0
  2  9  1  0  0  0  0
  2 10  1  0  0  0  0
  5 11  1  0  0  0  0
M  END
