 xtb: 6.7.1 (edcfbbe)
          04032521183D

 20 20  0     0  0            999 V2000
   -2.3825    0.0000    0.0096 C   0  0  0  0  0  0  0  0  0  0  0  0
   -0.9674    0.0000   -0.2915 N   0  0  0  0  0  0  0  0  0  0  0  0
   -0.3139    1.1937    0.2180 C   0  0  0  0  0  0  0  0  0  0  0  0
    1.1410    1.2399   -0.2379 C   0  0  0  0  0  0  0  0  0  0  0  0
    1.8812    0.0000    0.2511 C   0  0  0  0  0  0  0  0  0  0  0  0
    1.1410   -1.2399   -0.2379 C   0  0  0  0  0  0  0  0  0  0  0  0
   -0.3139   -1.1937    0.2180 C   0  0  0  0  0  0  0  0  0  0  0  0
   -2.8400   -0.8851   -0.4292 H   0  0  0  0  0  0  0  0  0  0  0  0
   -2.8400    0.8851   -0.4292 H   0  0  0  0  0  0  0  0  0  0  0  0
   -2.5864    0.0000    1.0934 H   0  0  0  0  0  0  0  0  0  0  0  0
   -0.8515    2.0641   -0.1669 H   0  0  0  0  0  0  0  0  0  0  0  0
   -0.3557    1.2293    1.3245 H   0  0  0  0  0  0  0  0  0  0  0  0
    1.1651    1.2698   -1.3278 H   0  0  0  0  0  0  0  0  0  0  0  0
    1.6119    2.1462    0.1452 H   0  0  0  0  0  0  0  0  0  0  0  0
    2.9077    0.0000   -0.1178 H   0  0  0  0  0  0  0  0  0  0  0  0
    1.9132    0.0000    1.3437 H   0  0  0  0  0  0  0  0  0  0  0  0
    1.1651   -1.2698   -1.3278 H   0  0  0  0  0  0  0  0  0  0  0  0
    1.6119   -2.1462    0.1452 H   0  0  0  0  0  0  0  0  0  0  0  0
   -0.8515   -2.0641   -0.1669 H   0  0  0  0  0  0  0  0  0  0  0  0
   -0.3557   -1.2293    1.3245 H   0  0  0  0  0  0  0  0  0  0  0  0
  1  2  1  0  0  0  0
  2  3  1  0  0  0  0
  3  4  1  0  0  0  0
  4  5  1  0  0  0  0
  5  6  1  0  0  0  0
  2  7  1  0  0  0  0
  6  7  1  0  0  0  0
  1  8  1  0  0  0  0
  1  9  1  0  0  0  0
  1 10  1  0  0  0  0
  3 11  1  0  0  0  0
  3 12  1  0  0  0  0
  4 13  1  0  0  0  0
  4 14  1  0  0  0  0
  5 15  1  0  0  0  0
  5 16  1  0  0  0  0
  6 17  1  0  0  0  0
  6 18  1  0  0  0  0
  7 19  1  0  0  0  0
  7 20  1  0  0  0  0
M  END
