 xtb: 6.7.1 (edcfbbe)
          04042520253D

 15 14  0     0  0            999 V2000
    1.7177    0.4440    0.6058 C   0  0  0  0  0  0  0  0  0  0  0  0
    0.8968    0.3480   -0.6768 C   0  0  0  0  0  0  0  0  0  0  0  0
   -0.5659   -0.0852   -0.4723 C   0  0  0  0  0  0  0  0  0  0  0  0
   -1.0512   -0.0980   -1.4563 H   0  0  0  0  0  0  0  0  0  0  0  0
   -1.3389    0.8586    0.4482 C   0  0  0  0  0  0  0  0  0  0  0  0
   -0.6622   -1.4291   -0.0307 O   0  0  0  0  0  0  0  0  0  0  0  0
    1.7375   -0.5092    1.1288 H   0  0  0  0  0  0  0  0  0  0  0  0
    1.3203    1.2055    1.2711 H   0  0  0  0  0  0  0  0  0  0  0  0
    2.7427    0.7112    0.3611 H   0  0  0  0  0  0  0  0  0  0  0  0
    1.3640   -0.3778   -1.3461 H   0  0  0  0  0  0  0  0  0  0  0  0
    0.8932    1.3156   -1.1806 H   0  0  0  0  0  0  0  0  0  0  0  0
   -0.9313    0.8342    1.4557 H   0  0  0  0  0  0  0  0  0  0  0  0
   -1.2848    1.8744    0.0685 H   0  0  0  0  0  0  0  0  0  0  0  0
   -2.3815    0.5535    0.4918 H   0  0  0  0  0  0  0  0  0  0  0  0
   -0.3191   -1.4801    0.8724 H   0  0  0  0  0  0  0  0  0  0  0  0
  1  2  1  0  0  0  0
  2  3  1  0  0  0  0
  3  4  1  0  0  0  0
  3  5  1  0  0  0  0
  3  6  1  0  0  0  0
  1  7  1  0  0  0  0
  1  8  1  0  0  0  0
  1  9  1  0  0  0  0
  2 10  1  0  0  0  0
  2 11  1  0  0  0  0
  5 12  1  0  0  0  0
  5 13  1  0  0  0  0
  5 14  1  0  0  0  0
  6 15  1  0  0  0  0
M  END
