 xtb: 6.7.1 (edcfbbe)
          04042523583D

 17 18  0     0  0            999 V2000
   -2.8957    1.4732    0.0017 C   0  0  0  0  0  0  0  0  0  0  0  0
   -1.8090    0.4476   -0.0079 C   0  0  0  0  0  0  0  0  0  0  0  0
   -2.1010   -0.9152   -0.0012 C   0  0  0  0  0  0  0  0  0  0  0  0
   -1.0951   -1.8711    0.0056 C   0  0  0  0  0  0  0  0  0  0  0  0
    0.2304   -1.4859    0.0060 C   0  0  0  0  0  0  0  0  0  0  0  0
    0.5286   -0.1241    0.0002 C   0  0  0  0  0  0  0  0  0  0  0  0
   -0.4776    0.8378   -0.0068 C   0  0  0  0  0  0  0  0  0  0  0  0
    1.8868    0.2920   -0.0006 N   0  0  0  0  0  0  0  0  0  0  0  0
    2.1346    1.4896   -0.0115 O   0  0  0  0  0  0  0  0  0  0  0  0
    2.7619   -0.5625    0.0110 O   0  0  0  0  0  0  0  0  0  0  0  0
   -3.8472    1.0345   -0.2825 H   0  0  0  0  0  0  0  0  0  0  0  0
   -2.9947    1.8933    1.0014 H   0  0  0  0  0  0  0  0  0  0  0  0
   -2.6585    2.2874   -0.6780 H   0  0  0  0  0  0  0  0  0  0  0  0
   -3.1325   -1.2323   -0.0021 H   0  0  0  0  0  0  0  0  0  0  0  0
   -1.3476   -2.9190    0.0093 H   0  0  0  0  0  0  0  0  0  0  0  0
    1.0347   -2.2040    0.0095 H   0  0  0  0  0  0  0  0  0  0  0  0
   -0.2029    1.8816   -0.0119 H   0  0  0  0  0  0  0  0  0  0  0  0
  1  2  1  0  0  0  0
  2  3  4  0  0  0  0
  3  4  4  0  0  0  0
  4  5  4  0  0  0  0
  5  6  4  0  0  0  0
  2  7  4  0  0  0  0
  6  7  4  0  0  0  0
  6  8  1  0  0  0  0
  8  9  4  0  0  0  0
  8 10  4  0  0  0  0
  9 10  1  0  0  0  0
  1 11  1  0  0  0  0
  1 12  1  0  0  0  0
  1 13  1  0  0  0  0
  3 14  1  0  0  0  0
  4 15  1  0  0  0  0
  5 16  1  0  0  0  0
  7 17  1  0  0  0  0
M  END
