 xtb: 6.7.1 (edcfbbe)
          04042513183D

 12 11  0     0  0            999 V2000
   -1.8944   -0.6553    0.1720 C   0  0  0  0  0  0  0  0  0  0  0  0
   -0.9502    0.4787   -0.2047 C   0  0  0  0  0  0  0  0  0  0  0  0
    0.5069    0.0947   -0.0173 C   0  0  0  0  0  0  0  0  0  0  0  0
    0.8724   -1.0032    0.3878 O   0  0  0  0  0  0  0  0  0  0  0  0
    1.3807    1.0627   -0.3328 N   0  0  0  0  0  0  0  0  0  0  0  0
   -1.7490   -0.9355    1.2125 H   0  0  0  0  0  0  0  0  0  0  0  0
   -2.9280   -0.3543    0.0265 H   0  0  0  0  0  0  0  0  0  0  0  0
   -1.6906   -1.5321   -0.4378 H   0  0  0  0  0  0  0  0  0  0  0  0
   -1.1527    1.3558    0.4126 H   0  0  0  0  0  0  0  0  0  0  0  0
   -1.0969    0.7559   -1.2501 H   0  0  0  0  0  0  0  0  0  0  0  0
    1.0729    1.9592   -0.6665 H   0  0  0  0  0  0  0  0  0  0  0  0
    2.3667    0.8839   -0.2342 H   0  0  0  0  0  0  0  0  0  0  0  0
  1  2  1  0  0  0  0
  2  3  1  0  0  0  0
  3  4  2  0  0  0  0
  3  5  4  0  0  0  0
  1  6  1  0  0  0  0
  1  7  1  0  0  0  0
  1  8  1  0  0  0  0
  2  9  1  0  0  0  0
  2 10  1  0  0  0  0
  5 11  1  0  0  0  0
  5 12  1  0  0  0  0
M  END
