19
 xtb: 6.7.1 (edcfbbe)
C           -2.62515576156109        1.55882065942767        0.11259691646471
C           -1.97101034317591        0.18847121455337       -0.00924038546028
C           -0.46089518568191        0.18192247538570        0.01141087384044
C            0.30675838352579        1.34176763020113        0.13692666638777
C            1.70060622531517        1.30387384999447        0.15319793618075
C            2.35737356210933        0.08229582854870        0.04182046141006
C            1.62162904990069       -1.09157931880493       -0.08492183374295
C            0.23061015663844       -1.03716718015732       -0.09939834822394
O           -0.43066164609974       -2.24298399086027       -0.22936468142575
H           -2.35935394386376        2.04930942622967        1.05423164007875
H           -3.71314388012952        1.45201927410290        0.08660296315168
H           -2.33385593947525        2.21898917551961       -0.71041675112715
H           -2.31411679455308       -0.28641905682318       -0.94024800175127
H           -2.33907518295444       -0.45280392743261        0.80540706291606
H           -0.19469974268471        2.29970718694993        0.22391561563744
H            2.26551985779759        2.22502790463330        0.25187829899664
H            3.44187364861012        0.03657878846160        0.05304285284076
H            2.11375079190144       -2.05512737716942       -0.17267447426649
H           -1.38634043436326       -2.09724992123306       -0.21960276719482
