 xtb: 6.7.1 (edcfbbe)
          04062518003D

 24 24  0     0  0            999 V2000
   -2.1035   -1.0431   -0.1741 C   0  0  0  0  0  0  0  0  0  0  0  0
   -1.0928   -0.4244    0.8091 C   0  0  0  0  0  0  0  0  0  0  0  0
   -1.5685   -0.4383    1.7972 H   0  0  0  0  0  0  0  0  0  0  0  0
   -0.7623    1.0525    0.4968 C   0  0  0  0  0  0  0  0  0  0  0  0
   -1.6419    1.4966    0.0177 H   0  0  0  0  0  0  0  0  0  0  0  0
    0.4650    1.2533   -0.4210 C   0  0  0  0  0  0  0  0  0  0  0  0
    0.8100    2.2867   -0.2475 H   0  0  0  0  0  0  0  0  0  0  0  0
    1.6078    0.3168   -0.0041 C   0  0  0  0  0  0  0  0  0  0  0  0
    2.3864    0.3671   -0.7783 H   0  0  0  0  0  0  0  0  0  0  0  0
    1.1019   -1.1387    0.0709 C   0  0  0  0  0  0  0  0  0  0  0  0
    1.8839   -1.7838    0.4935 H   0  0  0  0  0  0  0  0  0  0  0  0
    0.0535   -1.2471    1.0056 O   0  0  0  0  0  0  0  0  0  0  0  0
    0.8067   -1.6669   -1.1738 O   0  0  0  0  0  0  0  0  0  0  0  0
    2.0807    0.7616    1.2438 O   0  0  0  0  0  0  0  0  0  0  0  0
    0.2232    1.0393   -1.7847 O   0  0  0  0  0  0  0  0  0  0  0  0
   -0.5791    1.7814    1.6882 O   0  0  0  0  0  0  0  0  0  0  0  0
   -1.8093   -0.6951   -1.5089 O   0  0  0  0  0  0  0  0  0  0  0  0
   -3.1006   -0.6754    0.0972 H   0  0  0  0  0  0  0  0  0  0  0  0
   -2.0680   -2.1299   -0.0346 H   0  0  0  0  0  0  0  0  0  0  0  0
    0.1379   -1.1035   -1.6179 H   0  0  0  0  0  0  0  0  0  0  0  0
    2.8364    0.2261    1.5239 H   0  0  0  0  0  0  0  0  0  0  0  0
   -0.4959    1.6116   -2.0865 H   0  0  0  0  0  0  0  0  0  0  0  0
    0.2721    1.5232    2.0787 H   0  0  0  0  0  0  0  0  0  0  0  0
   -2.4257   -1.1509   -2.0988 H   0  0  0  0  0  0  0  0  0  0  0  0
  1  2  1  0  0  0  0
  2  3  1  0  0  0  0
  2  4  1  0  0  0  0
  4  5  1  0  0  0  0
  4  6  1  0  0  0  0
  6  7  1  0  0  0  0
  6  8  1  0  0  0  0
  8  9  1  0  0  0  0
  8 10  1  0  0  0  0
 10 11  1  0  0  0  0
  2 12  1  0  0  0  0
 10 12  1  0  0  0  0
 10 13  1  0  0  0  0
  8 14  1  0  0  0  0
  6 15  1  0  0  0  0
  4 16  1  0  0  0  0
  1 17  1  0  0  0  0
  1 18  1  0  0  0  0
  1 19  1  0  0  0  0
 13 20  1  0  0  0  0
 14 21  1  0  0  0  0
 15 22  1  0  0  0  0
 16 23  1  0  0  0  0
 17 24  1  0  0  0  0
M  END
