 xtb: 6.7.1 (edcfbbe)
          04062518003D

 24 24  0     0  0            999 V2000
   -1.8238   -1.0457   -0.6677 C   0  0  0  0  0  0  0  0  0  0  0  0
   -1.0396   -0.4891    0.5389 C   0  0  0  0  0  0  0  0  0  0  0  0
   -1.6749   -0.5889    1.4290 H   0  0  0  0  0  0  0  0  0  0  0  0
   -0.7056    1.0014    0.3536 C   0  0  0  0  0  0  0  0  0  0  0  0
   -1.5381    1.4626   -0.1950 H   0  0  0  0  0  0  0  0  0  0  0  0
    0.5843    1.2382   -0.4671 C   0  0  0  0  0  0  0  0  0  0  0  0
    0.8544    2.2932   -0.3260 H   0  0  0  0  0  0  0  0  0  0  0  0
    1.7192    0.3664    0.0862 C   0  0  0  0  0  0  0  0  0  0  0  0
    2.5798    0.4213   -0.5901 H   0  0  0  0  0  0  0  0  0  0  0  0
    1.2640   -1.1083    0.1334 C   0  0  0  0  0  0  0  0  0  0  0  0
    2.0147   -1.6804    0.6973 H   0  0  0  0  0  0  0  0  0  0  0  0
    0.0870   -1.2962    0.8730 O   0  0  0  0  0  0  0  0  0  0  0  0
    1.1507   -1.5660   -1.1829 O   0  0  0  0  0  0  0  0  0  0  0  0
    2.1700    0.7953    1.3413 O   0  0  0  0  0  0  0  0  0  0  0  0
    0.3935    1.0526   -1.8453 O   0  0  0  0  0  0  0  0  0  0  0  0
   -0.4992    1.6418    1.5966 O   0  0  0  0  0  0  0  0  0  0  0  0
   -3.1201   -0.5055   -0.7338 O   0  0  0  0  0  0  0  0  0  0  0  0
   -1.8511   -2.1387   -0.5891 H   0  0  0  0  0  0  0  0  0  0  0  0
   -1.3389   -0.7665   -1.6036 H   0  0  0  0  0  0  0  0  0  0  0  0
    1.0676   -2.5312   -1.2031 H   0  0  0  0  0  0  0  0  0  0  0  0
    1.3995    1.0282    1.8888 H   0  0  0  0  0  0  0  0  0  0  0  0
    0.6168    0.1349   -2.0732 H   0  0  0  0  0  0  0  0  0  0  0  0
   -1.3374    1.7301    2.0718 H   0  0  0  0  0  0  0  0  0  0  0  0
   -3.6607   -0.8588   -0.0127 H   0  0  0  0  0  0  0  0  0  0  0  0
  1  2  1  0  0  0  0
  2  3  1  0  0  0  0
  2  4  1  0  0  0  0
  4  5  1  0  0  0  0
  4  6  1  0  0  0  0
  6  7  1  0  0  0  0
  6  8  1  0  0  0  0
  8  9  1  0  0  0  0
  8 10  1  0  0  0  0
 10 11  1  0  0  0  0
  2 12  1  0  0  0  0
 10 12  1  0  0  0  0
 10 13  1  0  0  0  0
  8 14  1  0  0  0  0
  6 15  1  0  0  0  0
  4 16  1  0  0  0  0
  1 17  1  0  0  0  0
  1 18  1  0  0  0  0
  1 19  1  0  0  0  0
 13 20  1  0  0  0  0
 14 21  1  0  0  0  0
 15 22  1  0  0  0  0
 16 23  1  0  0  0  0
 17 24  1  0  0  0  0
M  END
