12
CONF1
C -0.0000018541 -1.3941863388 0.0000575697
C 1.2017796614 -0.6982630101 0.0000513448
C 1.2017797761 0.6982616101 0.0000261985
C -0.0000019947 1.3941851395 0.0000045629
C -1.2017862630 0.6982624194 0.0000116365
C -1.2017860635 -0.6982641423 0.0000406662
Cl -2.6903154375 -1.5987420031 0.0000552475
Cl -2.6903153998 1.5987407503 -0.0000161056
Cl 2.6903054961 1.5987408663 0.0000137905
Cl 2.6903058202 -1.5987414568 0.0000775437
H -0.0000034481 -2.4773558700 0.0000749024
H -0.0000036788 2.4773548600 -0.0000199917
