 xtb: 6.7.1 (edcfbbe)
          04062518003D

 24 24  0     0  0            999 V2000
   -2.0377   -1.4315   -0.0865 C   0  0  0  0  0  0  0  0  0  0  0  0
   -1.0127   -0.5291    0.6188 C   0  0  0  0  0  0  0  0  0  0  0  0
   -1.4464   -0.1919    1.5688 H   0  0  0  0  0  0  0  0  0  0  0  0
   -0.6945    0.7247   -0.2115 C   0  0  0  0  0  0  0  0  0  0  0  0
   -0.6645    0.4817   -1.2863 H   0  0  0  0  0  0  0  0  0  0  0  0
    0.6803    1.2529    0.2149 C   0  0  0  0  0  0  0  0  0  0  0  0
    0.6683    1.4007    1.3060 H   0  0  0  0  0  0  0  0  0  0  0  0
    1.7616    0.2191   -0.1309 C   0  0  0  0  0  0  0  0  0  0  0  0
    2.0087    0.3356   -1.1981 H   0  0  0  0  0  0  0  0  0  0  0  0
    1.2446   -1.2181    0.1030 C   0  0  0  0  0  0  0  0  0  0  0  0
    2.0230   -1.7810    0.6304 H   0  0  0  0  0  0  0  0  0  0  0  0
    0.1517   -1.2595    0.9864 O   0  0  0  0  0  0  0  0  0  0  0  0
    1.0028   -1.9073   -1.0832 O   0  0  0  0  0  0  0  0  0  0  0  0
    2.9167    0.3904    0.6470 O   0  0  0  0  0  0  0  0  0  0  0  0
    1.0038    2.4532   -0.4403 O   0  0  0  0  0  0  0  0  0  0  0  0
   -1.6338    1.7462    0.0097 O   0  0  0  0  0  0  0  0  0  0  0  0
   -3.1694   -0.6435   -0.3827 O   0  0  0  0  0  0  0  0  0  0  0  0
   -2.2849   -2.2587    0.5876 H   0  0  0  0  0  0  0  0  0  0  0  0
   -1.5991   -1.8476   -1.0017 H   0  0  0  0  0  0  0  0  0  0  0  0
    0.5724   -1.3398   -1.7403 H   0  0  0  0  0  0  0  0  0  0  0  0
    3.2482    1.2930    0.5216 H   0  0  0  0  0  0  0  0  0  0  0  0
    0.2458    3.0527   -0.3602 H   0  0  0  0  0  0  0  0  0  0  0  0
   -2.5190    1.3902   -0.1703 H   0  0  0  0  0  0  0  0  0  0  0  0
   -3.8731   -1.2068   -0.7334 H   0  0  0  0  0  0  0  0  0  0  0  0
  1  2  1  0  0  0  0
  2  3  1  0  0  0  0
  2  4  1  0  0  0  0
  4  5  1  0  0  0  0
  4  6  1  0  0  0  0
  6  7  1  0  0  0  0
  6  8  1  0  0  0  0
  8  9  1  0  0  0  0
  8 10  1  0  0  0  0
 10 11  1  0  0  0  0
  2 12  1  0  0  0  0
 10 12  1  0  0  0  0
 10 13  1  0  0  0  0
  8 14  1  0  0  0  0
  6 15  1  0  0  0  0
  4 16  1  0  0  0  0
  1 17  1  0  0  0  0
  1 18  1  0  0  0  0
  1 19  1  0  0  0  0
 13 20  1  0  0  0  0
 14 21  1  0  0  0  0
 15 22  1  0  0  0  0
 16 23  1  0  0  0  0
 17 24  1  0  0  0  0
M  END
