 xtb: 6.7.1 (edcfbbe)
          04062517063D

 22 23  0     0  0            999 V2000
   -5.0638   -0.6825    0.0331 C   0  0  0  0  0  0  0  0  0  0  0  0
   -4.3073   -1.3779   -0.8959 C   0  0  0  0  0  0  0  0  0  0  0  0
   -2.9289   -1.2652   -0.8932 C   0  0  0  0  0  0  0  0  0  0  0  0
   -2.2937   -0.4415    0.0325 C   0  0  0  0  0  0  0  0  0  0  0  0
   -3.0587    0.2500    0.9672 C   0  0  0  0  0  0  0  0  0  0  0  0
   -4.4363    0.1256    0.9670 C   0  0  0  0  0  0  0  0  0  0  0  0
   -0.8234   -0.3355    0.0257 C   0  0  0  0  0  0  0  0  0  0  0  0
   -0.0544   -1.4947    0.0682 C   0  0  0  0  0  0  0  0  0  0  0  0
    1.3275   -1.4346    0.0692 C   0  0  0  0  0  0  0  0  0  0  0  0
    1.9790   -0.2047    0.0220 C   0  0  0  0  0  0  0  0  0  0  0  0
    1.2219    0.9625   -0.0362 C   0  0  0  0  0  0  0  0  0  0  0  0
   -0.1690    0.8969   -0.0348 C   0  0  0  0  0  0  0  0  0  0  0  0
   -1.0617    2.3661   -0.1663 Cl  0  0  0  0  0  0  0  0  0  0  0  0
    2.0190    2.4878   -0.1172 Cl  0  0  0  0  0  0  0  0  0  0  0  0
    3.6994   -0.1190    0.0275 Cl  0  0  0  0  0  0  0  0  0  0  0  0
    2.2549   -2.8845    0.1320 Cl  0  0  0  0  0  0  0  0  0  0  0  0
   -6.1392   -0.7718    0.0316 H   0  0  0  0  0  0  0  0  0  0  0  0
   -4.7921   -2.0104   -1.6235 H   0  0  0  0  0  0  0  0  0  0  0  0
   -2.3376   -1.7976   -1.6220 H   0  0  0  0  0  0  0  0  0  0  0  0
   -2.5715    0.8676    1.7056 H   0  0  0  0  0  0  0  0  0  0  0  0
   -5.0212    0.6617    1.6985 H   0  0  0  0  0  0  0  0  0  0  0  0
   -0.5439   -2.4538    0.1155 H   0  0  0  0  0  0  0  0  0  0  0  0
  1  2  4  0  0  0  0
  2  3  4  0  0  0  0
  3  4  4  0  0  0  0
  4  5  4  0  0  0  0
  1  6  4  0  0  0  0
  5  6  4  0  0  0  0
  4  7  1  0  0  0  0
  7  8  4  0  0  0  0
  8  9  4  0  0  0  0
  9 10  4  0  0  0  0
 10 11  4  0  0  0  0
  7 12  4  0  0  0  0
 11 12  4  0  0  0  0
 12 13  1  0  0  0  0
 11 14  1  0  0  0  0
 10 15  1  0  0  0  0
  9 16  1  0  0  0  0
  1 17  1  0  0  0  0
  2 18  1  0  0  0  0
  3 19  1  0  0  0  0
  5 20  1  0  0  0  0
  6 21  1  0  0  0  0
  8 22  1  0  0  0  0
M  END
