 xtb: 6.7.1 (edcfbbe)
          04062519153D

 24 24  0     0  0            999 V2000
   -2.5599   -0.6506   -0.3623 C   0  0  0  0  0  0  0  0  0  0  0  0
   -1.1889   -0.2892    0.2169 C   0  0  0  0  0  0  0  0  0  0  0  0
   -1.2604   -0.2564    1.3149 H   0  0  0  0  0  0  0  0  0  0  0  0
   -0.7148    1.0818   -0.2832 C   0  0  0  0  0  0  0  0  0  0  0  0
   -0.7184    1.0827   -1.3845 H   0  0  0  0  0  0  0  0  0  0  0  0
    0.7244    1.3345    0.1884 C   0  0  0  0  0  0  0  0  0  0  0  0
    0.7191    1.4311    1.2878 H   0  0  0  0  0  0  0  0  0  0  0  0
    1.6256    0.1552   -0.2112 C   0  0  0  0  0  0  0  0  0  0  0  0
    1.6654    0.0995   -1.3052 H   0  0  0  0  0  0  0  0  0  0  0  0
    1.0149   -1.1491    0.3390 C   0  0  0  0  0  0  0  0  0  0  0  0
    0.9785   -1.0956    1.4418 H   0  0  0  0  0  0  0  0  0  0  0  0
   -0.2888   -1.3107   -0.1756 O   0  0  0  0  0  0  0  0  0  0  0  0
    1.7537   -2.2708    0.0374 O   0  0  0  0  0  0  0  0  0  0  0  0
    2.9498    0.3603    0.2079 O   0  0  0  0  0  0  0  0  0  0  0  0
    1.1663    2.5386   -0.3910 O   0  0  0  0  0  0  0  0  0  0  0  0
   -1.5949    2.0552    0.2105 O   0  0  0  0  0  0  0  0  0  0  0  0
   -3.0889   -1.8153    0.2123 O   0  0  0  0  0  0  0  0  0  0  0  0
   -2.4615   -0.7619   -1.4493 H   0  0  0  0  0  0  0  0  0  0  0  0
   -3.2569    0.1581   -0.1393 H   0  0  0  0  0  0  0  0  0  0  0  0
    1.7171   -2.4474   -0.9158 H   0  0  0  0  0  0  0  0  0  0  0  0
    3.0437    0.1527    1.1489 H   0  0  0  0  0  0  0  0  0  0  0  0
    2.1318    2.5845   -0.3131 H   0  0  0  0  0  0  0  0  0  0  0  0
   -1.2491    2.9287   -0.0308 H   0  0  0  0  0  0  0  0  0  0  0  0
   -2.4594   -2.5381    0.0727 H   0  0  0  0  0  0  0  0  0  0  0  0
  1  2  1  0  0  0  0
  2  3  1  0  0  0  0
  2  4  1  0  0  0  0
  4  5  1  0  0  0  0
  4  6  1  0  0  0  0
  6  7  1  0  0  0  0
  6  8  1  0  0  0  0
  8  9  1  0  0  0  0
  8 10  1  0  0  0  0
 10 11  1  0  0  0  0
  2 12  1  0  0  0  0
 10 12  1  0  0  0  0
 10 13  1  0  0  0  0
  8 14  1  0  0  0  0
  6 15  1  0  0  0  0
  4 16  1  0  0  0  0
  1 17  1  0  0  0  0
  1 18  1  0  0  0  0
  1 19  1  0  0  0  0
 13 20  1  0  0  0  0
 14 21  1  0  0  0  0
 15 22  1  0  0  0  0
 16 23  1  0  0  0  0
 17 24  1  0  0  0  0
M  END
