 xtb: 6.7.1 (edcfbbe)
          04032522053D

 27 31  0     0  0            999 V2000
    2.8599    0.0002   -0.8218 C   0  0  0  0  0  0  0  0  0  0  0  0
    2.4859   -1.1302    0.1351 C   0  0  0  0  0  0  0  0  0  0  0  0
    2.6041   -2.1477   -0.2219 H   0  0  0  0  0  0  0  0  0  0  0  0
    1.0727   -0.7759    0.6456 C   0  0  0  0  0  0  0  0  0  0  0  0
    0.9604   -1.2022    1.6447 H   0  0  0  0  0  0  0  0  0  0  0  0
    1.0726    0.7760    0.6457 C   0  0  0  0  0  0  0  0  0  0  0  0
    0.9601    1.2023    1.6447 H   0  0  0  0  0  0  0  0  0  0  0  0
    2.4859    1.1304    0.1354 C   0  0  0  0  0  0  0  0  0  0  0  0
    2.6042    2.1479   -0.2213 H   0  0  0  0  0  0  0  0  0  0  0  0
    3.3425    0.7346    1.3501 C   0  0  0  0  0  0  0  0  0  0  0  0
    3.3576    1.3430    2.2418 H   0  0  0  0  0  0  0  0  0  0  0  0
    3.3426   -0.7348    1.3499 C   0  0  0  0  0  0  0  0  0  0  0  0
    3.3578   -1.3435    2.2413 H   0  0  0  0  0  0  0  0  0  0  0  0
    4.5020    0.0000    1.0739 O   0  0  0  0  0  0  0  0  0  0  0  0
   -0.2445    1.1169   -0.1058 C   0  0  0  0  0  0  0  0  0  0  0  0
   -1.2952    0.6703    0.9164 C   0  0  0  0  0  0  0  0  0  0  0  0
   -1.2952   -0.6699    0.9165 C   0  0  0  0  0  0  0  0  0  0  0  0
   -0.2446   -1.1168   -0.1056 C   0  0  0  0  0  0  0  0  0  0  0  0
   -0.5048   -0.0001   -1.1454 C   0  0  0  0  0  0  0  0  0  0  0  0
   -2.2427   -0.0000   -1.6590 Cl  0  0  0  0  0  0  0  0  0  0  0  0
    0.3341   -0.0004   -2.6792 Cl  0  0  0  0  0  0  0  0  0  0  0  0
   -0.3951   -2.7622   -0.6847 Cl  0  0  0  0  0  0  0  0  0  0  0  0
   -2.1683   -1.7437    1.8873 Cl  0  0  0  0  0  0  0  0  0  0  0  0
   -2.1683    1.7443    1.8868 Cl  0  0  0  0  0  0  0  0  0  0  0  0
   -0.3948    2.7622   -0.6853 Cl  0  0  0  0  0  0  0  0  0  0  0  0
    2.3300    0.0004   -1.7562 H   0  0  0  0  0  0  0  0  0  0  0  0
    3.9301    0.0002   -1.0216 H   0  0  0  0  0  0  0  0  0  0  0  0
  1  2  1  0  0  0  0
  2  3  1  0  0  0  0
  2  4  1  0  0  0  0
  4  5  1  0  0  0  0
  4  6  1  0  0  0  0
  6  7  1  0  0  0  0
  1  8  1  0  0  0  0
  6  8  1  0  0  0  0
  8  9  1  0  0  0  0
  8 10  1  0  0  0  0
 10 11  1  0  0  0  0
  2 12  1  0  0  0  0
 10 12  1  0  0  0  0
 12 13  1  0  0  0  0
 10 14  1  0  0  0  0
 12 14  1  0  0  0  0
  6 15  1  0  0  0  0
 15 16  1  0  0  0  0
 16 17  2  0  0  0  0
  4 18  1  0  0  0  0
 17 18  1  0  0  0  0
 15 19  1  0  0  0  0
 18 19  1  0  0  0  0
 19 20  1  0  0  0  0
 19 21  1  0  0  0  0
 18 22  1  0  0  0  0
 17 23  1  0  0  0  0
 16 24  1  0  0  0  0
 15 25  1  0  0  0  0
  1 26  1  0  0  0  0
  1 27  1  0  0  0  0
M  END
