 xtb: 6.7.1 (edcfbbe)
          04032521503D

 13 12  0     0  0            999 V2000
   -0.7289   -1.1722   -0.0886 C   0  0  0  0  0  0  0  0  0  0  0  0
    0.0000   -0.0000    0.3536 N   0  0  0  0  0  0  0  0  0  0  0  0
   -0.6507    1.2173   -0.0886 C   0  0  0  0  0  0  0  0  0  0  0  0
    1.3797   -0.0451   -0.0886 C   0  0  0  0  0  0  0  0  0  0  0  0
   -0.7775   -1.2507   -1.1869 H   0  0  0  0  0  0  0  0  0  0  0  0
   -1.7438   -1.1284    0.3024 H   0  0  0  0  0  0  0  0  0  0  0  0
   -0.2412   -2.0630    0.3028 H   0  0  0  0  0  0  0  0  0  0  0  0
   -0.1056    2.0743    0.3026 H   0  0  0  0  0  0  0  0  0  0  0  0
   -1.6662    1.2401    0.3026 H   0  0  0  0  0  0  0  0  0  0  0  0
   -0.6943    1.2989   -1.1868 H   0  0  0  0  0  0  0  0  0  0  0  0
    1.9073    0.8224    0.3032 H   0  0  0  0  0  0  0  0  0  0  0  0
    1.4721   -0.0475   -1.1869 H   0  0  0  0  0  0  0  0  0  0  0  0
    1.8491   -0.9461    0.3020 H   0  0  0  0  0  0  0  0  0  0  0  0
  1  2  1  0  0  0  0
  2  3  1  0  0  0  0
  2  4  1  0  0  0  0
  1  5  1  0  0  0  0
  1  6  1  0  0  0  0
  1  7  1  0  0  0  0
  3  8  1  0  0  0  0
  3  9  1  0  0  0  0
  3 10  1  0  0  0  0
  4 11  1  0  0  0  0
  4 12  1  0  0  0  0
  4 13  1  0  0  0  0
M  END
