 xtb: 6.7.1 (edcfbbe)
          04032521383D

 24 25  0     0  0            999 V2000
    3.2797    1.0665   -0.0007 C   0  0  0  0  0  0  0  0  0  0  0  0
    2.2764    0.0344   -0.0003 N   0  0  0  0  0  0  0  0  0  0  0  0
    2.4734   -1.2925   -0.0018 C   0  0  0  0  0  0  0  0  0  0  0  0
    1.3559   -1.9961   -0.0013 N   0  0  0  0  0  0  0  0  0  0  0  0
    0.3750   -1.0701    0.0004 C   0  0  0  0  0  0  0  0  0  0  0  0
    0.9139    0.2136    0.0009 C   0  0  0  0  0  0  0  0  0  0  0  0
    0.0944    1.3793    0.0014 C   0  0  0  0  0  0  0  0  0  0  0  0
    0.4768    2.5465    0.0029 O   0  0  0  0  0  0  0  0  0  0  0  0
   -1.2601    1.0551   -0.0004 N   0  0  0  0  0  0  0  0  0  0  0  0
   -1.8184   -0.2152   -0.0003 C   0  0  0  0  0  0  0  0  0  0  0  0
   -3.0334   -0.3548   -0.0017 O   0  0  0  0  0  0  0  0  0  0  0  0
   -0.9678   -1.2871    0.0001 N   0  0  0  0  0  0  0  0  0  0  0  0
   -1.4849   -2.6422    0.0028 C   0  0  0  0  0  0  0  0  0  0  0  0
   -2.2200    2.1502   -0.0021 C   0  0  0  0  0  0  0  0  0  0  0  0
    3.9071    0.9779    0.8854 H   0  0  0  0  0  0  0  0  0  0  0  0
    3.9019    0.9823   -0.8908 H   0  0  0  0  0  0  0  0  0  0  0  0
    2.7787    2.0324    0.0030 H   0  0  0  0  0  0  0  0  0  0  0  0
    3.4464   -1.7403   -0.0031 H   0  0  0  0  0  0  0  0  0  0  0  0
   -1.1811   -3.1453    0.9188 H   0  0  0  0  0  0  0  0  0  0  0  0
   -1.0816   -3.1814   -0.8514 H   0  0  0  0  0  0  0  0  0  0  0  0
   -2.5691   -2.5855   -0.0562 H   0  0  0  0  0  0  0  0  0  0  0  0
   -1.6569    3.0799   -0.0011 H   0  0  0  0  0  0  0  0  0  0  0  0
   -2.8528    2.0835    0.8815 H   0  0  0  0  0  0  0  0  0  0  0  0
   -2.8496    2.0834   -0.8879 H   0  0  0  0  0  0  0  0  0  0  0  0
  1  2  1  0  0  0  0
  2  3  4  0  0  0  0
  3  4  4  0  0  0  0
  4  5  4  0  0  0  0
  2  6  1  0  0  0  0
  5  6  4  0  0  0  0
  6  7  1  0  0  0  0
  7  8  2  0  0  0  0
  7  9  1  0  0  0  0
  9 10  1  0  0  0  0
 10 11  2  0  0  0  0
  5 12  1  0  0  0  0
 10 12  1  0  0  0  0
 12 13  1  0  0  0  0
  9 14  1  0  0  0  0
  1 15  1  0  0  0  0
  1 16  1  0  0  0  0
  1 17  1  0  0  0  0
  3 18  1  0  0  0  0
 13 19  1  0  0  0  0
 13 20  1  0  0  0  0
 13 21  1  0  0  0  0
 14 22  1  0  0  0  0
 14 23  1  0  0  0  0
 14 24  1  0  0  0  0
M  END
