 xtb: 6.7.1 (edcfbbe)
          04032521363D

 22 24  0     0  0            999 V2000
    4.1102   -0.0735    0.0005 C   0  0  0  0  0  0  0  0  0  0  0  0
    3.7377    1.2581    0.0000 C   0  0  0  0  0  0  0  0  0  0  0  0
    2.3958    1.6056   -0.0003 C   0  0  0  0  0  0  0  0  0  0  0  0
    1.4278    0.6165   -0.0003 C   0  0  0  0  0  0  0  0  0  0  0  0
    1.8027   -0.7255   -0.0000 C   0  0  0  0  0  0  0  0  0  0  0  0
    3.1441   -1.0673    0.0004 C   0  0  0  0  0  0  0  0  0  0  0  0
    0.8719   -1.7455   -0.0002 O   0  0  0  0  0  0  0  0  0  0  0  0
   -0.4462   -1.3620   -0.0002 C   0  0  0  0  0  0  0  0  0  0  0  0
   -1.4142   -2.3523   -0.0001 C   0  0  0  0  0  0  0  0  0  0  0  0
   -2.7564   -2.0091    0.0000 C   0  0  0  0  0  0  0  0  0  0  0  0
   -3.1410   -0.6818    0.0002 C   0  0  0  0  0  0  0  0  0  0  0  0
   -2.1680    0.3059    0.0001 C   0  0  0  0  0  0  0  0  0  0  0  0
   -0.8168   -0.0152   -0.0002 C   0  0  0  0  0  0  0  0  0  0  0  0
    0.1015    1.0053   -0.0006 O   0  0  0  0  0  0  0  0  0  0  0  0
   -2.6102    1.9826    0.0002 Cl  0  0  0  0  0  0  0  0  0  0  0  0
    5.1525   -0.3473    0.0009 H   0  0  0  0  0  0  0  0  0  0  0  0
    4.4855    2.0340    0.0001 H   0  0  0  0  0  0  0  0  0  0  0  0
    2.0763    2.6349   -0.0006 H   0  0  0  0  0  0  0  0  0  0  0  0
    3.4060   -2.1124    0.0007 H   0  0  0  0  0  0  0  0  0  0  0  0
   -1.0924   -3.3802   -0.0002 H   0  0  0  0  0  0  0  0  0  0  0  0
   -3.5048   -2.7834   -0.0000 H   0  0  0  0  0  0  0  0  0  0  0  0
   -4.1797   -0.3992    0.0004 H   0  0  0  0  0  0  0  0  0  0  0  0
  1  2  4  0  0  0  0
  2  3  4  0  0  0  0
  3  4  4  0  0  0  0
  4  5  4  0  0  0  0
  1  6  4  0  0  0  0
  5  6  4  0  0  0  0
  5  7  1  0  0  0  0
  7  8  1  0  0  0  0
  8  9  4  0  0  0  0
  9 10  4  0  0  0  0
 10 11  4  0  0  0  0
 11 12  4  0  0  0  0
  8 13  4  0  0  0  0
 12 13  4  0  0  0  0
  4 14  1  0  0  0  0
 13 14  1  0  0  0  0
 12 15  1  0  0  0  0
  1 16  1  0  0  0  0
  2 17  1  0  0  0  0
  3 18  1  0  0  0  0
  6 19  1  0  0  0  0
  9 20  1  0  0  0  0
 10 21  1  0  0  0  0
 11 22  1  0  0  0  0
M  END
