 xtb: 6.7.1 (edcfbbe)
          04052500023D

 16 15  0     0  0            999 V2000
    1.2271    1.4460   -0.3465 C   0  0  0  0  0  0  0  0  0  0  0  0
    0.7163    0.0095   -0.4263 C   0  0  0  0  0  0  0  0  0  0  0  0
    1.5284   -0.9043    0.5015 C   0  0  0  0  0  0  0  0  0  0  0  0
   -0.7341   -0.0767    0.0148 C   0  0  0  0  0  0  0  0  0  0  0  0
   -1.1882    0.6303    0.8925 O   0  0  0  0  0  0  0  0  0  0  0  0
   -1.5572   -1.1113   -0.6931 C   0  0  0  0  0  0  0  0  0  0  0  0
    0.6877    2.0811   -1.0455 H   0  0  0  0  0  0  0  0  0  0  0  0
    1.0730    1.8376    0.6564 H   0  0  0  0  0  0  0  0  0  0  0  0
    2.2869    1.4848   -0.5824 H   0  0  0  0  0  0  0  0  0  0  0  0
    0.8016   -0.3601   -1.4512 H   0  0  0  0  0  0  0  0  0  0  0  0
    2.5789   -0.8662    0.2266 H   0  0  0  0  0  0  0  0  0  0  0  0
    1.1869   -1.9339    0.4331 H   0  0  0  0  0  0  0  0  0  0  0  0
    1.4249   -0.5722    1.5323 H   0  0  0  0  0  0  0  0  0  0  0  0
   -1.0111   -2.0478   -0.7608 H   0  0  0  0  0  0  0  0  0  0  0  0
   -1.7490   -0.7610   -1.7056 H   0  0  0  0  0  0  0  0  0  0  0  0
   -2.5046   -1.2595   -0.1824 H   0  0  0  0  0  0  0  0  0  0  0  0
  1  2  1  0  0  0  0
  2  3  1  0  0  0  0
  2  4  1  0  0  0  0
  4  5  2  0  0  0  0
  4  6  1  0  0  0  0
  1  7  1  0  0  0  0
  1  8  1  0  0  0  0
  1  9  1  0  0  0  0
  2 10  1  0  0  0  0
  3 11  1  0  0  0  0
  3 12  1  0  0  0  0
  3 13  1  0  0  0  0
  6 14  1  0  0  0  0
  6 15  1  0  0  0  0
  6 16  1  0  0  0  0
M  END
