19
CONF1
C -1.9191152617 -2.1953516292 0.0015173961
C -0.9207923097 -1.0715992047 -0.0017286472
C 0.4500518492 -1.3270167988 -0.0027783535
C 1.3847843953 -0.2825414100 -0.0014867743
C 0.9308691004 1.0339418450 -0.0000578119
C -0.4408854052 1.2923145267 0.0005469496
C -1.3668956800 0.2554911637 -0.0004302604
O -0.8284935999 2.6176993891 0.0012144831
C 2.8567865657 -0.5869527818 0.0015845443
H -2.5385173314 -2.1663550781 0.9047484496
H -2.5982260086 -2.1207131933 -0.8545438562
H -1.4206315615 -3.1667548477 -0.0392151132
H 0.8013381336 -2.3556731761 -0.0048297977
H 1.6308182930 1.8639756949 -0.0001503767
H -2.4311568163 0.4790998669 -0.0006910808
H -1.7951065003 2.6604582569 0.0017255384
H 3.1287151998 -1.2133312749 -0.8546567604
H 3.4526594098 0.3279460501 -0.0388394243
H 3.1393314380 -1.1394650237 0.9044266022
