 xtb: 6.7.1 (edcfbbe)
          04062518003D

 24 24  0     0  0            999 V2000
   -2.5546   -0.6888   -0.3442 C   0  0  0  0  0  0  0  0  0  0  0  0
   -1.1789   -0.3106    0.2172 C   0  0  0  0  0  0  0  0  0  0  0  0
   -1.2449   -0.2442    1.3158 H   0  0  0  0  0  0  0  0  0  0  0  0
   -0.7013    1.0408   -0.3518 C   0  0  0  0  0  0  0  0  0  0  0  0
   -0.6708    0.9613   -1.4447 H   0  0  0  0  0  0  0  0  0  0  0  0
    0.7140    1.3268    0.1836 C   0  0  0  0  0  0  0  0  0  0  0  0
    0.6693    1.4041    1.2790 H   0  0  0  0  0  0  0  0  0  0  0  0
    1.6447    0.1581   -0.1926 C   0  0  0  0  0  0  0  0  0  0  0  0
    1.7201    0.0679   -1.2817 H   0  0  0  0  0  0  0  0  0  0  0  0
    1.0399   -1.1594    0.3377 C   0  0  0  0  0  0  0  0  0  0  0  0
    1.0189   -1.1228    1.4500 H   0  0  0  0  0  0  0  0  0  0  0  0
   -0.2761   -1.3455   -0.1356 O   0  0  0  0  0  0  0  0  0  0  0  0
    1.8114   -2.2074   -0.1129 O   0  0  0  0  0  0  0  0  0  0  0  0
    2.9567    0.3560    0.2498 O   0  0  0  0  0  0  0  0  0  0  0  0
    1.2125    2.5689   -0.2309 O   0  0  0  0  0  0  0  0  0  0  0  0
   -1.6004    2.0796   -0.0788 O   0  0  0  0  0  0  0  0  0  0  0  0
   -3.1604   -1.7353    0.3666 O   0  0  0  0  0  0  0  0  0  0  0  0
   -2.4369   -0.9455   -1.4031 H   0  0  0  0  0  0  0  0  0  0  0  0
   -3.2167    0.1740   -0.2541 H   0  0  0  0  0  0  0  0  0  0  0  0
    1.3746   -3.0518    0.0808 H   0  0  0  0  0  0  0  0  0  0  0  0
    2.9760    0.4780    1.2103 H   0  0  0  0  0  0  0  0  0  0  0  0
    1.3230    2.5839   -1.1919 H   0  0  0  0  0  0  0  0  0  0  0  0
   -1.5193    2.3600    0.8445 H   0  0  0  0  0  0  0  0  0  0  0  0
   -2.6259   -2.5348    0.2606 H   0  0  0  0  0  0  0  0  0  0  0  0
  1  2  1  0  0  0  0
  2  3  1  0  0  0  0
  2  4  1  0  0  0  0
  4  5  1  0  0  0  0
  4  6  1  0  0  0  0
  6  7  1  0  0  0  0
  6  8  1  0  0  0  0
  8  9  1  0  0  0  0
  8 10  1  0  0  0  0
 10 11  1  0  0  0  0
  2 12  1  0  0  0  0
 10 12  1  0  0  0  0
 10 13  1  0  0  0  0
  8 14  1  0  0  0  0
  6 15  1  0  0  0  0
  4 16  1  0  0  0  0
  1 17  1  0  0  0  0
  1 18  1  0  0  0  0
  1 19  1  0  0  0  0
 13 20  1  0  0  0  0
 14 21  1  0  0  0  0
 15 22  1  0  0  0  0
 16 23  1  0  0  0  0
 17 24  1  0  0  0  0
M  END
