 xtb: 6.7.1 (edcfbbe)
          04062518003D

 24 24  0     0  0            999 V2000
   -2.1150   -1.1907   -0.1728 C   0  0  0  0  0  0  0  0  0  0  0  0
   -1.2486   -0.3426    0.7701 C   0  0  0  0  0  0  0  0  0  0  0  0
   -1.8369   -0.1746    1.6785 H   0  0  0  0  0  0  0  0  0  0  0  0
   -0.9073    1.0347    0.1458 C   0  0  0  0  0  0  0  0  0  0  0  0
   -1.1806    1.0277   -0.9158 H   0  0  0  0  0  0  0  0  0  0  0  0
    0.6060    1.2902    0.2563 C   0  0  0  0  0  0  0  0  0  0  0  0
    0.9039    1.3378    1.3101 H   0  0  0  0  0  0  0  0  0  0  0  0
    1.3232    0.1020   -0.4017 C   0  0  0  0  0  0  0  0  0  0  0  0
    0.9429   -0.0108   -1.4299 H   0  0  0  0  0  0  0  0  0  0  0  0
    0.9938   -1.1893    0.3905 C   0  0  0  0  0  0  0  0  0  0  0  0
    1.8316   -1.4168    1.0615 H   0  0  0  0  0  0  0  0  0  0  0  0
   -0.1010   -1.0270    1.2597 O   0  0  0  0  0  0  0  0  0  0  0  0
    0.8628   -2.2918   -0.4445 O   0  0  0  0  0  0  0  0  0  0  0  0
    2.7052    0.3553   -0.4191 O   0  0  0  0  0  0  0  0  0  0  0  0
    0.9722    2.5286   -0.2822 O   0  0  0  0  0  0  0  0  0  0  0  0
   -1.6750    2.0663    0.7072 O   0  0  0  0  0  0  0  0  0  0  0  0
   -1.4967   -1.3157   -1.4421 O   0  0  0  0  0  0  0  0  0  0  0  0
   -3.0803   -0.6848   -0.2684 H   0  0  0  0  0  0  0  0  0  0  0  0
   -2.2572   -2.1777    0.2823 H   0  0  0  0  0  0  0  0  0  0  0  0
    0.0821   -2.1496   -1.0224 H   0  0  0  0  0  0  0  0  0  0  0  0
    3.1599   -0.3578   -0.8899 H   0  0  0  0  0  0  0  0  0  0  0  0
    0.8093    2.5373   -1.2366 H   0  0  0  0  0  0  0  0  0  0  0  0
   -1.3144    2.3172    1.5694 H   0  0  0  0  0  0  0  0  0  0  0  0
   -2.1181   -1.7339   -2.0556 H   0  0  0  0  0  0  0  0  0  0  0  0
  1  2  1  0  0  0  0
  2  3  1  0  0  0  0
  2  4  1  0  0  0  0
  4  5  1  0  0  0  0
  4  6  1  0  0  0  0
  6  7  1  0  0  0  0
  6  8  1  0  0  0  0
  8  9  1  0  0  0  0
  8 10  1  0  0  0  0
 10 11  1  0  0  0  0
  2 12  1  0  0  0  0
 10 12  1  0  0  0  0
 10 13  1  0  0  0  0
  8 14  1  0  0  0  0
  6 15  1  0  0  0  0
  4 16  1  0  0  0  0
  1 17  1  0  0  0  0
  1 18  1  0  0  0  0
  1 19  1  0  0  0  0
 13 20  1  0  0  0  0
 14 21  1  0  0  0  0
 15 22  1  0  0  0  0
 16 23  1  0  0  0  0
 17 24  1  0  0  0  0
M  END
