 xtb: 6.7.1 (edcfbbe)
          04062507063D

 24 24  0     0  0            999 V2000
   -1.3711    0.6845    1.5288 C   0  0  0  0  0  0  0  0  0  0  0  0
   -1.9904    0.4812    0.2387 N   0  0  0  0  0  0  0  0  0  0  0  0
   -3.1761    1.2726   -0.0084 C   0  0  0  0  0  0  0  0  0  0  0  0
   -1.6373   -0.4730   -0.6437 C   0  0  0  0  0  0  0  0  0  0  0  0
   -2.3626   -0.8136   -1.5843 O   0  0  0  0  0  0  0  0  0  0  0  0
   -0.4404   -1.1325   -0.4274 N   0  0  0  0  0  0  0  0  0  0  0  0
    0.8016   -0.5515   -0.1312 C   0  0  0  0  0  0  0  0  0  0  0  0
    1.0454    0.8076   -0.3099 C   0  0  0  0  0  0  0  0  0  0  0  0
    2.2864    1.3356   -0.0029 C   0  0  0  0  0  0  0  0  0  0  0  0
    3.2997    0.5197    0.4705 C   0  0  0  0  0  0  0  0  0  0  0  0
    3.0685   -0.8378    0.6236 C   0  0  0  0  0  0  0  0  0  0  0  0
    1.8303   -1.3734    0.3249 C   0  0  0  0  0  0  0  0  0  0  0  0
   -0.7463    1.5804    1.5306 H   0  0  0  0  0  0  0  0  0  0  0  0
   -0.7598   -0.1723    1.7966 H   0  0  0  0  0  0  0  0  0  0  0  0
   -2.1592    0.8034    2.2727 H   0  0  0  0  0  0  0  0  0  0  0  0
   -3.9595    1.0251    0.7103 H   0  0  0  0  0  0  0  0  0  0  0  0
   -3.5351    1.0554   -1.0120 H   0  0  0  0  0  0  0  0  0  0  0  0
   -2.9307    2.3317    0.0760 H   0  0  0  0  0  0  0  0  0  0  0  0
   -0.3876   -2.0061   -0.9353 H   0  0  0  0  0  0  0  0  0  0  0  0
    0.2696    1.4397   -0.7143 H   0  0  0  0  0  0  0  0  0  0  0  0
    2.4640    2.3905   -0.1469 H   0  0  0  0  0  0  0  0  0  0  0  0
    4.2662    0.9361    0.7072 H   0  0  0  0  0  0  0  0  0  0  0  0
    3.8568   -1.4840    0.9784 H   0  0  0  0  0  0  0  0  0  0  0  0
    1.6503   -2.4312    0.4418 H   0  0  0  0  0  0  0  0  0  0  0  0
  1  2  1  0  0  0  0
  2  3  1  0  0  0  0
  2  4  4  0  0  0  0
  4  5  2  0  0  0  0
  4  6  1  0  0  0  0
  6  7  1  0  0  0  0
  7  8  4  0  0  0  0
  8  9  4  0  0  0  0
  9 10  4  0  0  0  0
 10 11  4  0  0  0  0
  7 12  4  0  0  0  0
 11 12  4  0  0  0  0
  1 13  1  0  0  0  0
  1 14  1  0  0  0  0
  1 15  1  0  0  0  0
  3 16  1  0  0  0  0
  3 17  1  0  0  0  0
  3 18  1  0  0  0  0
  6 19  1  0  0  0  0
  8 20  1  0  0  0  0
  9 21  1  0  0  0  0
 10 22  1  0  0  0  0
 11 23  1  0  0  0  0
 12 24  1  0  0  0  0
M  END
