 xtb: 6.7.1 (edcfbbe)
          04032522173D

 12 11  0     0  0            999 V2000
   -2.5056    0.0395    0.0206 C   0  0  0  0  0  0  0  0  0  0  0  0
   -1.0861   -0.5119   -0.0397 C   0  0  0  0  0  0  0  0  0  0  0  0
   -0.0612    0.6061    0.0537 C   0  0  0  0  0  0  0  0  0  0  0  0
    1.6346   -0.1049   -0.0236 S   0  0  0  0  0  0  0  0  0  0  0  0
   -2.6685    0.5708    0.9554 H   0  0  0  0  0  0  0  0  0  0  0  0
   -2.6824    0.7272   -0.8030 H   0  0  0  0  0  0  0  0  0  0  0  0
   -3.2253   -0.7717   -0.0458 H   0  0  0  0  0  0  0  0  0  0  0  0
   -0.9376   -1.0563   -0.9755 H   0  0  0  0  0  0  0  0  0  0  0  0
   -0.9246   -1.2148    0.7812 H   0  0  0  0  0  0  0  0  0  0  0  0
   -0.1641    1.3006   -0.7793 H   0  0  0  0  0  0  0  0  0  0  0  0
   -0.1505    1.1395    0.9993 H   0  0  0  0  0  0  0  0  0  0  0  0
    2.2772    1.0512    0.0798 H   0  0  0  0  0  0  0  0  0  0  0  0
  1  2  1  0  0  0  0
  2  3  1  0  0  0  0
  3  4  1  0  0  0  0
  1  5  1  0  0  0  0
  1  6  1  0  0  0  0
  1  7  1  0  0  0  0
  2  8  1  0  0  0  0
  2  9  1  0  0  0  0
  3 10  1  0  0  0  0
  3 11  1  0  0  0  0
  4 12  1  0  0  0  0
M  END
