 xtb: 6.7.1 (edcfbbe)
          04032522203D

 11 10  0     0  0            999 V2000
   -2.9099   -0.0488   -0.0542 C   0  0  0  0  0  0  0  0  0  0  0  0
   -1.6641    0.6539   -0.1579 O   0  0  0  0  0  0  0  0  0  0  0  0
   -0.5589   -0.0255    0.0983 C   0  0  0  0  0  0  0  0  0  0  0  0
   -0.5311   -1.1915    0.4110 O   0  0  0  0  0  0  0  0  0  0  0  0
    0.6499    0.8737   -0.0603 C   0  0  0  0  0  0  0  0  0  0  0  0
    2.1421   -0.0377    0.2801 Cl  0  0  0  0  0  0  0  0  0  0  0  0
   -2.9125   -0.9044   -0.7297 H   0  0  0  0  0  0  0  0  0  0  0  0
   -3.6716    0.6725   -0.3315 H   0  0  0  0  0  0  0  0  0  0  0  0
   -3.0545   -0.4006    0.9673 H   0  0  0  0  0  0  0  0  0  0  0  0
    0.5893    1.7069    0.6393 H   0  0  0  0  0  0  0  0  0  0  0  0
    0.7031    1.2508   -1.0812 H   0  0  0  0  0  0  0  0  0  0  0  0
  1  2  1  0  0  0  0
  2  3  1  0  0  0  0
  3  4  2  0  0  0  0
  3  5  1  0  0  0  0
  5  6  1  0  0  0  0
  1  7  1  0  0  0  0
  1  8  1  0  0  0  0
  1  9  1  0  0  0  0
  5 10  1  0  0  0  0
  5 11  1  0  0  0  0
M  END
