 xtb: 6.7.1 (edcfbbe)
          04062518003D

 24 24  0     0  0            999 V2000
   -2.5515   -0.6857   -0.3642 C   0  0  0  0  0  0  0  0  0  0  0  0
   -1.1729   -0.3212    0.1817 C   0  0  0  0  0  0  0  0  0  0  0  0
   -1.2366   -0.2731    1.2786 H   0  0  0  0  0  0  0  0  0  0  0  0
   -0.6944    1.0363   -0.3532 C   0  0  0  0  0  0  0  0  0  0  0  0
   -0.6698    0.9838   -1.4556 H   0  0  0  0  0  0  0  0  0  0  0  0
    0.7286    1.3259    0.1624 C   0  0  0  0  0  0  0  0  0  0  0  0
    0.6998    1.4293    1.2534 H   0  0  0  0  0  0  0  0  0  0  0  0
    1.6511    0.1596   -0.1973 C   0  0  0  0  0  0  0  0  0  0  0  0
    1.7339    0.0883   -1.2956 H   0  0  0  0  0  0  0  0  0  0  0  0
    1.0237   -1.1556    0.3236 C   0  0  0  0  0  0  0  0  0  0  0  0
    0.9958   -1.1134    1.4275 H   0  0  0  0  0  0  0  0  0  0  0  0
   -0.2627   -1.3351   -0.2021 O   0  0  0  0  0  0  0  0  0  0  0  0
    1.8018   -2.2455   -0.0323 O   0  0  0  0  0  0  0  0  0  0  0  0
    2.9161    0.3658    0.3732 O   0  0  0  0  0  0  0  0  0  0  0  0
    1.1749    2.5703   -0.3136 O   0  0  0  0  0  0  0  0  0  0  0  0
   -1.5882    2.0364    0.0561 O   0  0  0  0  0  0  0  0  0  0  0  0
   -3.1028   -1.7010    0.4404 O   0  0  0  0  0  0  0  0  0  0  0  0
   -2.4318   -1.0261   -1.3994 H   0  0  0  0  0  0  0  0  0  0  0  0
   -3.1685    0.2197   -0.3344 H   0  0  0  0  0  0  0  0  0  0  0  0
    1.4329   -2.6426   -0.8369 H   0  0  0  0  0  0  0  0  0  0  0  0
    3.4191   -0.4624    0.3244 H   0  0  0  0  0  0  0  0  0  0  0  0
    1.5123    2.4828   -1.2170 H   0  0  0  0  0  0  0  0  0  0  0  0
   -1.1287    2.8913    0.0046 H   0  0  0  0  0  0  0  0  0  0  0  0
   -3.9687   -1.9505    0.0874 H   0  0  0  0  0  0  0  0  0  0  0  0
  1  2  1  0  0  0  0
  2  3  1  0  0  0  0
  2  4  1  0  0  0  0
  4  5  1  0  0  0  0
  4  6  1  0  0  0  0
  6  7  1  0  0  0  0
  6  8  1  0  0  0  0
  8  9  1  0  0  0  0
  8 10  1  0  0  0  0
 10 11  1  0  0  0  0
  2 12  1  0  0  0  0
 10 12  1  0  0  0  0
 10 13  1  0  0  0  0
  8 14  1  0  0  0  0
  6 15  1  0  0  0  0
  4 16  1  0  0  0  0
  1 17  1  0  0  0  0
  1 18  1  0  0  0  0
  1 19  1  0  0  0  0
 13 20  1  0  0  0  0
 14 21  1  0  0  0  0
 15 22  1  0  0  0  0
 16 23  1  0  0  0  0
 17 24  1  0  0  0  0
M  END
