 xtb: 6.7.1 (edcfbbe)
          04032521353D

 13 13  0     0  0            999 V2000
   -1.1806   -1.2034    0.0000 C   0  0  0  0  0  0  0  0  0  0  0  0
    0.1998   -1.2052   -0.0000 C   0  0  0  0  0  0  0  0  0  0  0  0
    0.8811    0.0009   -0.0000 C   0  0  0  0  0  0  0  0  0  0  0  0
    0.1993    1.2043   -0.0000 C   0  0  0  0  0  0  0  0  0  0  0  0
   -1.1839    1.2020   -0.0000 C   0  0  0  0  0  0  0  0  0  0  0  0
   -1.8849   -0.0004   -0.0000 C   0  0  0  0  0  0  0  0  0  0  0  0
   -3.2371   -0.0558    0.0000 O   0  0  0  0  0  0  0  0  0  0  0  0
    2.6256    0.0017    0.0000 Cl  0  0  0  0  0  0  0  0  0  0  0  0
   -1.7342   -2.1281    0.0000 H   0  0  0  0  0  0  0  0  0  0  0  0
    0.7438   -2.1355   -0.0000 H   0  0  0  0  0  0  0  0  0  0  0  0
    0.7425    2.1352    0.0000 H   0  0  0  0  0  0  0  0  0  0  0  0
   -1.7146    2.1417    0.0000 H   0  0  0  0  0  0  0  0  0  0  0  0
   -3.6225    0.8342    0.0000 H   0  0  0  0  0  0  0  0  0  0  0  0
  1  2  4  0  0  0  0
  2  3  4  0  0  0  0
  3  4  4  0  0  0  0
  4  5  4  0  0  0  0
  1  6  4  0  0  0  0
  5  6  4  0  0  0  0
  6  7  1  0  0  0  0
  3  8  1  0  0  0  0
  1  9  1  0  0  0  0
  2 10  1  0  0  0  0
  4 11  1  0  0  0  0
  5 12  1  0  0  0  0
  7 13  1  0  0  0  0
M  END
