 xtb: 6.7.1 (edcfbbe)
          04032521553D

 12 11  0     0  0            999 V2000
   -1.4501    0.5574    1.3694 C   0  0  0  0  0  0  0  0  0  0  0  0
   -0.9846   -0.3290    0.2176 C   0  0  0  0  0  0  0  0  0  0  0  0
   -1.0785   -1.3951    0.4780 H   0  0  0  0  0  0  0  0  0  0  0  0
    0.5035   -0.0970   -0.0432 C   0  0  0  0  0  0  0  0  0  0  0  0
    0.7949    1.1741   -0.3512 F   0  0  0  0  0  0  0  0  0  0  0  0
    1.2563   -0.4048    1.0307 F   0  0  0  0  0  0  0  0  0  0  0  0
    0.9752   -0.8507   -1.0503 F   0  0  0  0  0  0  0  0  0  0  0  0
   -1.6182   -0.0514   -1.0035 O   0  0  0  0  0  0  0  0  0  0  0  0
   -0.8443    0.3674    2.2507 H   0  0  0  0  0  0  0  0  0  0  0  0
   -2.4876    0.3405    1.6023 H   0  0  0  0  0  0  0  0  0  0  0  0
   -1.3554    1.6036    1.0882 H   0  0  0  0  0  0  0  0  0  0  0  0
   -2.5787   -0.1352   -0.8967 H   0  0  0  0  0  0  0  0  0  0  0  0
  1  2  1  0  0  0  0
  2  3  1  0  0  0  0
  2  4  1  0  0  0  0
  4  5  1  0  0  0  0
  4  6  1  0  0  0  0
  4  7  1  0  0  0  0
  2  8  1  0  0  0  0
  1  9  1  0  0  0  0
  1 10  1  0  0  0  0
  1 11  1  0  0  0  0
  8 12  1  0  0  0  0
M  END
