13
 xtb: 6.7.1 (edcfbbe)
C           -1.18752138923409       -1.21038990634588        0.00000453455532
C            0.20212980387601       -1.21173963567586       -0.00000237034118
C            0.88171625829294        0.00070336905075       -0.00000257994882
C            0.20301818502428        1.21224606520060        0.00000654844065
C           -1.18794741121657        1.20951696214836        0.00001317587899
C           -1.88097975937615       -0.00051282930832        0.00001060640028
O           -3.25435277497063       -0.05675041716291        0.00001760876486
Cl           2.64683588739691        0.00039096073800       -0.00001069752062
H           -1.73637351733317       -2.14600861342503        0.00000489906511
H            0.74456062479918       -2.15025522352955       -0.00000783037633
H            0.74394175922812        2.15165222870176        0.00000828808801
H           -1.73458386741081        2.14801158737148        0.00002106882178
H           -3.60627623315050        0.84470659252641        0.00002607235283
