 xtb: 6.7.1 (edcfbbe)
          04062518003D

 24 24  0     0  0            999 V2000
   -2.3650   -0.9144    0.4481 C   0  0  0  0  0  0  0  0  0  0  0  0
   -0.9137   -0.4537    0.6005 C   0  0  0  0  0  0  0  0  0  0  0  0
   -0.6292   -0.5561    1.6595 H   0  0  0  0  0  0  0  0  0  0  0  0
   -0.7387    1.0238    0.1849 C   0  0  0  0  0  0  0  0  0  0  0  0
   -1.5021    1.2696   -0.5603 H   0  0  0  0  0  0  0  0  0  0  0  0
    0.6602    1.2362   -0.4329 C   0  0  0  0  0  0  0  0  0  0  0  0
    0.9392    2.2882   -0.2638 H   0  0  0  0  0  0  0  0  0  0  0  0
    1.6672    0.3342    0.2919 C   0  0  0  0  0  0  0  0  0  0  0  0
    2.6610    0.4903   -0.1461 H   0  0  0  0  0  0  0  0  0  0  0  0
    1.2835   -1.1456    0.0235 C   0  0  0  0  0  0  0  0  0  0  0  0
    1.5992   -1.7611    0.8846 H   0  0  0  0  0  0  0  0  0  0  0  0
   -0.1023   -1.3101   -0.1834 O   0  0  0  0  0  0  0  0  0  0  0  0
    1.9450   -1.6524   -1.0777 O   0  0  0  0  0  0  0  0  0  0  0  0
    1.6464    0.6652    1.6584 O   0  0  0  0  0  0  0  0  0  0  0  0
    0.7338    0.9133   -1.7968 O   0  0  0  0  0  0  0  0  0  0  0  0
   -0.9557    1.8939    1.2645 O   0  0  0  0  0  0  0  0  0  0  0  0
   -2.8287   -0.6086   -0.8462 O   0  0  0  0  0  0  0  0  0  0  0  0
   -2.9640   -0.3907    1.2046 H   0  0  0  0  0  0  0  0  0  0  0  0
   -2.3944   -1.9939    0.6302 H   0  0  0  0  0  0  0  0  0  0  0  0
    1.6037   -1.1997   -1.8686 H   0  0  0  0  0  0  0  0  0  0  0  0
    2.4332    0.3141    2.0984 H   0  0  0  0  0  0  0  0  0  0  0  0
    0.0710    1.4175   -2.2895 H   0  0  0  0  0  0  0  0  0  0  0  0
   -0.2454    1.7621    1.9132 H   0  0  0  0  0  0  0  0  0  0  0  0
   -3.6871   -1.0322   -0.9834 H   0  0  0  0  0  0  0  0  0  0  0  0
  1  2  1  0  0  0  0
  2  3  1  0  0  0  0
  2  4  1  0  0  0  0
  4  5  1  0  0  0  0
  4  6  1  0  0  0  0
  6  7  1  0  0  0  0
  6  8  1  0  0  0  0
  8  9  1  0  0  0  0
  8 10  1  0  0  0  0
 10 11  1  0  0  0  0
  2 12  1  0  0  0  0
 10 12  1  0  0  0  0
 10 13  1  0  0  0  0
  8 14  1  0  0  0  0
  6 15  1  0  0  0  0
  4 16  1  0  0  0  0
  1 17  1  0  0  0  0
  1 18  1  0  0  0  0
  1 19  1  0  0  0  0
 13 20  1  0  0  0  0
 14 21  1  0  0  0  0
 15 22  1  0  0  0  0
 16 23  1  0  0  0  0
 17 24  1  0  0  0  0
M  END
