 xtb: 6.7.1 (edcfbbe)
          04052503283D

 19 19  0     0  0            999 V2000
   -2.4063   -0.2397   -1.2536 C   0  0  0  0  0  0  0  0  0  0  0  0
   -1.7130    0.0264    0.0512 C   0  0  0  0  0  0  0  0  0  0  0  0
   -2.3987    0.2282    1.1722 C   0  0  0  0  0  0  0  0  0  0  0  0
   -0.2398    0.0373    0.0356 C   0  0  0  0  0  0  0  0  0  0  0  0
    0.4782   -0.8150   -0.8018 C   0  0  0  0  0  0  0  0  0  0  0  0
    1.8610   -0.8029   -0.8074 C   0  0  0  0  0  0  0  0  0  0  0  0
    2.5558    0.0683    0.0144 C   0  0  0  0  0  0  0  0  0  0  0  0
    1.8551    0.9285    0.8437 C   0  0  0  0  0  0  0  0  0  0  0  0
    0.4730    0.9128    0.8541 C   0  0  0  0  0  0  0  0  0  0  0  0
   -2.3546   -1.2995   -1.5002 H   0  0  0  0  0  0  0  0  0  0  0  0
   -3.4538    0.0418   -1.1907 H   0  0  0  0  0  0  0  0  0  0  0  0
   -1.9329    0.3187   -2.0585 H   0  0  0  0  0  0  0  0  0  0  0  0
   -1.9156    0.3810    2.1217 H   0  0  0  0  0  0  0  0  0  0  0  0
   -3.4755    0.2245    1.1817 H   0  0  0  0  0  0  0  0  0  0  0  0
   -0.0457   -1.5067   -1.4432 H   0  0  0  0  0  0  0  0  0  0  0  0
    2.3995   -1.4761   -1.4582 H   0  0  0  0  0  0  0  0  0  0  0  0
    3.6354    0.0800    0.0061 H   0  0  0  0  0  0  0  0  0  0  0  0
    2.3885    1.6175    1.4820 H   0  0  0  0  0  0  0  0  0  0  0  0
   -0.0648    1.6005    1.4895 H   0  0  0  0  0  0  0  0  0  0  0  0
  1  2  1  0  0  0  0
  2  3  2  0  0  0  0
  2  4  1  0  0  0  0
  4  5  4  0  0  0  0
  5  6  4  0  0  0  0
  6  7  4  0  0  0  0
  7  8  4  0  0  0  0
  4  9  4  0  0  0  0
  8  9  4  0  0  0  0
  1 10  1  0  0  0  0
  1 11  1  0  0  0  0
  1 12  1  0  0  0  0
  3 13  1  0  0  0  0
  3 14  1  0  0  0  0
  5 15  1  0  0  0  0
  6 16  1  0  0  0  0
  7 17  1  0  0  0  0
  8 18  1  0  0  0  0
  9 19  1  0  0  0  0
M  END
