 xtb: 6.7.1 (edcfbbe)
          04032520583D

 12 12  0     0  0            999 V2000
    0.2354    1.3747   -0.0003 C   0  0  0  0  0  0  0  0  0  0  0  0
    1.3082    0.4835   -0.0003 C   0  0  0  0  0  0  0  0  0  0  0  0
    1.0728   -0.8912   -0.0002 C   0  0  0  0  0  0  0  0  0  0  0  0
   -0.2354   -1.3746   -0.0001 C   0  0  0  0  0  0  0  0  0  0  0  0
   -1.3082   -0.4835   -0.0002 C   0  0  0  0  0  0  0  0  0  0  0  0
   -1.0728    0.8912   -0.0002 C   0  0  0  0  0  0  0  0  0  0  0  0
   -2.3894    1.9849   -0.0003 Cl  0  0  0  0  0  0  0  0  0  0  0  0
   -2.9136   -1.0768   -0.0001 Cl  0  0  0  0  0  0  0  0  0  0  0  0
   -0.5243   -3.0617   -0.0001 Cl  0  0  0  0  0  0  0  0  0  0  0  0
    2.3893   -1.9848   -0.0002 Cl  0  0  0  0  0  0  0  0  0  0  0  0
    2.9136    1.0768   -0.0003 Cl  0  0  0  0  0  0  0  0  0  0  0  0
    0.5243    3.0617   -0.0004 Cl  0  0  0  0  0  0  0  0  0  0  0  0
  1  2  4  0  0  0  0
  2  3  4  0  0  0  0
  3  4  4  0  0  0  0
  4  5  4  0  0  0  0
  1  6  4  0  0  0  0
  5  6  4  0  0  0  0
  6  7  1  0  0  0  0
  5  8  1  0  0  0  0
  4  9  1  0  0  0  0
  3 10  1  0  0  0  0
  2 11  1  0  0  0  0
  1 12  1  0  0  0  0
M  END
