10
 xtb: 6.7.1 (edcfbbe)
C           -1.63817739863203       -0.50271575018348       -0.00001856693781
C           -0.61505950959933        0.64180374544442       -0.00010550976568
C            0.75778010354377        0.16149950550971       -0.00039685034130
C            1.88605496078278       -0.26846583760990        0.00130452286767
H           -1.51829512369954       -1.13054514977957        0.88714844979848
H           -1.51843157045274       -1.13054333020785       -0.88720608384492
H           -2.65195514119626       -0.09280793732173        0.00006670477002
H           -0.76803317320037        1.27977091860373        0.87849912159359
H           -0.76823307806504        1.27982197042242       -0.87864020647863
H            2.88637804921500       -0.64034158028747       -0.00071252115872
