22
CONF1
C 1.6782306450 1.4220311050 -1.0833297809
C 3.0514018827 1.5411165363 -1.1855788472
C 3.8761180539 0.7438945371 -0.4065943762
C 3.3160057640 -0.1696744896 0.4799742690
C 1.9411741121 -0.2943708202 0.5777709105
C 1.1114159857 0.4969935158 -0.2100967378
C -0.3555359011 0.3772339738 -0.1128411964
C -1.1211730673 1.5193122536 0.1014202988
C -2.4993719449 1.4441952985 0.2026478491
C -3.1482012479 0.2170310272 0.0827085278
C -2.3938723242 -0.9309911026 -0.1484052867
C -1.0062052157 -0.8519266056 -0.2448155054
Cl -0.1205356315 -2.2911445791 -0.5869110257
Cl -3.1888234631 -2.4492167305 -0.3194775454
Cl -4.8617067573 0.1120373411 0.2102226975
Cl -3.4233914899 2.8694371604 0.4801698562
Cl 4.3358384453 -1.1619919478 1.4709158179
Cl 5.5967413832 0.8887112658 -0.5362142534
H 1.0410489203 2.0350972321 -1.6990392786
H 3.4936557281 2.2484514187 -1.8671853616
H 1.5249178891 -0.9954053170 1.2817626908
H -0.6327421796 2.4739639984 0.2076976701
22
CONF2
C 1.7578732172 0.0816975269 -1.5107698537
C 3.1347050949 0.1429036095 -1.6160065467
C 3.9113037022 0.3181069826 -0.4808912906
C 3.2996052160 0.4457249192 0.7616582933
C 1.9205202402 0.3947680198 0.8666161501
C 1.1397465259 0.2014626887 -0.2691914969
C -0.3286841156 0.1521973363 -0.1357872064
C -0.9896119250 1.1785593293 0.5318299130
C -2.3665958660 1.1677841461 0.6696373064
C -3.1183440979 0.1184461685 0.1452614197
C -2.4667473531 -0.9225731133 -0.5120617053
C -1.0806314215 -0.9054516380 -0.6528160859
Cl -0.3139642518 -2.2418443041 -1.4221536709
Cl -3.3853898369 -2.2348566804 -1.1438988700
Cl -4.8317909455 0.0966138041 0.3098554322
Cl -3.1617373376 2.4549588418 1.4915134274
Cl 4.2598193769 0.6690939058 2.1872115865
Cl 5.6371314644 0.3807776254 -0.6136188025
H 1.1619040190 -0.0408262855 -2.3997098320
H 3.6162902812 0.0546514233 -2.5756099170
H 1.4589537111 0.4849341844 1.8359589368
H -0.4225380145 2.0023399916 0.9330174730
