 xtb: 6.7.1 (edcfbbe)
          04042513193D

 12 11  0     0  0            999 V2000
   -2.3651    0.8516   -0.2446 C   0  0  0  0  0  0  0  0  0  0  0  0
   -1.0998    0.6323    0.3923 O   0  0  0  0  0  0  0  0  0  0  0  0
   -0.4346   -0.4756    0.1411 C   0  0  0  0  0  0  0  0  0  0  0  0
   -0.8037   -1.3687   -0.5845 O   0  0  0  0  0  0  0  0  0  0  0  0
    0.8966   -0.4804    0.8865 C   0  0  0  0  0  0  0  0  0  0  0  0
    1.8705    0.1690    0.0531 C   0  0  0  0  0  0  0  0  0  0  0  0
    2.6335    0.6916   -0.6206 N   0  0  0  0  0  0  0  0  0  0  0  0
   -2.6671   -0.0416   -0.7913 H   0  0  0  0  0  0  0  0  0  0  0  0
   -2.2552    1.6944   -0.9248 H   0  0  0  0  0  0  0  0  0  0  0  0
   -3.0812    1.0877    0.5392 H   0  0  0  0  0  0  0  0  0  0  0  0
    1.2105   -1.5096    1.0687 H   0  0  0  0  0  0  0  0  0  0  0  0
    0.8001    0.0760    1.8203 H   0  0  0  0  0  0  0  0  0  0  0  0
  1  2  1  0  0  0  0
  2  3  1  0  0  0  0
  3  4  2  0  0  0  0
  3  5  1  0  0  0  0
  5  6  1  0  0  0  0
  6  7  3  0  0  0  0
  1  8  1  0  0  0  0
  1  9  1  0  0  0  0
  1 10  1  0  0  0  0
  5 11  1  0  0  0  0
  5 12  1  0  0  0  0
M  END
