 xtb: 6.7.1 (edcfbbe)
          04032521233D

 19 19  0     0  0            999 V2000
   -2.6004   -0.9798    0.0003 C   0  0  0  0  0  0  0  0  0  0  0  0
   -1.1555   -0.5681    0.0004 C   0  0  0  0  0  0  0  0  0  0  0  0
   -0.1864   -1.5630   -0.0002 C   0  0  0  0  0  0  0  0  0  0  0  0
    1.1638   -1.2691   -0.0005 C   0  0  0  0  0  0  0  0  0  0  0  0
    1.5694    0.0580    0.0000 C   0  0  0  0  0  0  0  0  0  0  0  0
    0.6090    1.0615    0.0003 C   0  0  0  0  0  0  0  0  0  0  0  0
   -0.7466    0.7684    0.0002 C   0  0  0  0  0  0  0  0  0  0  0  0
   -1.7354    1.8974   -0.0005 C   0  0  0  0  0  0  0  0  0  0  0  0
    2.8844    0.4261    0.0002 O   0  0  0  0  0  0  0  0  0  0  0  0
   -3.2681   -0.1263    0.0167 H   0  0  0  0  0  0  0  0  0  0  0  0
   -2.8174   -1.5717   -0.8879 H   0  0  0  0  0  0  0  0  0  0  0  0
   -2.8097   -1.5999    0.8707 H   0  0  0  0  0  0  0  0  0  0  0  0
   -0.4988   -2.5974   -0.0005 H   0  0  0  0  0  0  0  0  0  0  0  0
    1.8941   -2.0656   -0.0010 H   0  0  0  0  0  0  0  0  0  0  0  0
    0.9482    2.0867    0.0006 H   0  0  0  0  0  0  0  0  0  0  0  0
   -2.3725    1.8495   -0.8820 H   0  0  0  0  0  0  0  0  0  0  0  0
   -2.3696    1.8532    0.8833 H   0  0  0  0  0  0  0  0  0  0  0  0
   -1.2167    2.8520   -0.0032 H   0  0  0  0  0  0  0  0  0  0  0  0
    3.4519   -0.3587    0.0004 H   0  0  0  0  0  0  0  0  0  0  0  0
  1  2  1  0  0  0  0
  2  3  4  0  0  0  0
  3  4  4  0  0  0  0
  4  5  4  0  0  0  0
  5  6  4  0  0  0  0
  2  7  4  0  0  0  0
  6  7  4  0  0  0  0
  7  8  1  0  0  0  0
  5  9  1  0  0  0  0
  1 10  1  0  0  0  0
  1 11  1  0  0  0  0
  1 12  1  0  0  0  0
  3 13  1  0  0  0  0
  4 14  1  0  0  0  0
  6 15  1  0  0  0  0
  8 16  1  0  0  0  0
  8 17  1  0  0  0  0
  8 18  1  0  0  0  0
  9 19  1  0  0  0  0
M  END
