 xtb: 6.7.1 (edcfbbe)
          04062518003D

 24 24  0     0  0            999 V2000
   -2.4303   -1.0788   -0.3376 C   0  0  0  0  0  0  0  0  0  0  0  0
   -1.0782   -0.5918    0.2025 C   0  0  0  0  0  0  0  0  0  0  0  0
   -1.1288   -0.5648    1.3033 H   0  0  0  0  0  0  0  0  0  0  0  0
   -0.7375    0.8179   -0.3028 C   0  0  0  0  0  0  0  0  0  0  0  0
   -0.7060    0.8019   -1.4040 H   0  0  0  0  0  0  0  0  0  0  0  0
    0.6516    1.2254    0.2020 C   0  0  0  0  0  0  0  0  0  0  0  0
    0.6298    1.2985    1.3013 H   0  0  0  0  0  0  0  0  0  0  0  0
    1.6779    0.1590   -0.1888 C   0  0  0  0  0  0  0  0  0  0  0  0
    1.7652    0.1236   -1.2851 H   0  0  0  0  0  0  0  0  0  0  0  0
    1.1937   -1.2211    0.2872 C   0  0  0  0  0  0  0  0  0  0  0  0
    1.1632   -1.2206    1.3984 H   0  0  0  0  0  0  0  0  0  0  0  0
   -0.0916   -1.5142   -0.2113 O   0  0  0  0  0  0  0  0  0  0  0  0
    2.0760   -2.1696   -0.1891 O   0  0  0  0  0  0  0  0  0  0  0  0
    2.9044    0.5042    0.4007 O   0  0  0  0  0  0  0  0  0  0  0  0
    0.9574    2.4780   -0.3581 O   0  0  0  0  0  0  0  0  0  0  0  0
   -1.7271    1.7075    0.1440 O   0  0  0  0  0  0  0  0  0  0  0  0
   -3.5147   -0.4852    0.3208 O   0  0  0  0  0  0  0  0  0  0  0  0
   -2.5070   -2.1541   -0.1641 H   0  0  0  0  0  0  0  0  0  0  0  0
   -2.4721   -0.8938   -1.4189 H   0  0  0  0  0  0  0  0  0  0  0  0
    1.6885   -3.0539   -0.0977 H   0  0  0  0  0  0  0  0  0  0  0  0
    3.5559   -0.1845    0.2016 H   0  0  0  0  0  0  0  0  0  0  0  0
    1.8695    2.7066   -0.1262 H   0  0  0  0  0  0  0  0  0  0  0  0
   -1.4407    2.6106   -0.0634 H   0  0  0  0  0  0  0  0  0  0  0  0
   -3.3971    0.4792    0.2960 H   0  0  0  0  0  0  0  0  0  0  0  0
  1  2  1  0  0  0  0
  2  3  1  0  0  0  0
  2  4  1  0  0  0  0
  4  5  1  0  0  0  0
  4  6  1  0  0  0  0
  6  7  1  0  0  0  0
  6  8  1  0  0  0  0
  8  9  1  0  0  0  0
  8 10  1  0  0  0  0
 10 11  1  0  0  0  0
  2 12  1  0  0  0  0
 10 12  1  0  0  0  0
 10 13  1  0  0  0  0
  8 14  1  0  0  0  0
  6 15  1  0  0  0  0
  4 16  1  0  0  0  0
  1 17  1  0  0  0  0
  1 18  1  0  0  0  0
  1 19  1  0  0  0  0
 13 20  1  0  0  0  0
 14 21  1  0  0  0  0
 15 22  1  0  0  0  0
 16 23  1  0  0  0  0
 17 24  1  0  0  0  0
M  END
