 xtb: 6.7.1 (edcfbbe)
          04042519543D

 14 13  0     0  0            999 V2000
   -2.5617    0.5065   -0.3987 C   0  0  0  0  0  0  0  0  0  0  0  0
   -1.3848   -0.2625    0.1695 C   0  0  0  0  0  0  0  0  0  0  0  0
   -0.1776    0.4067   -0.2302 O   0  0  0  0  0  0  0  0  0  0  0  0
    0.9790   -0.1206    0.1481 C   0  0  0  0  0  0  0  0  0  0  0  0
    1.0578   -1.1398    0.8050 O   0  0  0  0  0  0  0  0  0  0  0  0
    2.1451    0.6948   -0.3222 C   0  0  0  0  0  0  0  0  0  0  0  0
   -2.4993    0.5345   -1.4824 H   0  0  0  0  0  0  0  0  0  0  0  0
   -3.4852    0.0186   -0.1049 H   0  0  0  0  0  0  0  0  0  0  0  0
   -2.5572    1.5246   -0.0211 H   0  0  0  0  0  0  0  0  0  0  0  0
   -1.3503   -1.2909   -0.2050 H   0  0  0  0  0  0  0  0  0  0  0  0
   -1.4131   -0.3003    1.2636 H   0  0  0  0  0  0  0  0  0  0  0  0
    2.5610    1.2268    0.5306 H   0  0  0  0  0  0  0  0  0  0  0  0
    1.8198    1.4058   -1.0736 H   0  0  0  0  0  0  0  0  0  0  0  0
    2.9135    0.0343   -0.7130 H   0  0  0  0  0  0  0  0  0  0  0  0
  1  2  1  0  0  0  0
  2  3  1  0  0  0  0
  3  4  1  0  0  0  0
  4  5  2  0  0  0  0
  4  6  1  0  0  0  0
  1  7  1  0  0  0  0
  1  8  1  0  0  0  0
  1  9  1  0  0  0  0
  2 10  1  0  0  0  0
  2 11  1  0  0  0  0
  6 12  1  0  0  0  0
  6 13  1  0  0  0  0
  6 14  1  0  0  0  0
M  END
