 xtb: 6.7.1 (edcfbbe)
          04052500253D

 17 17  0     0  0            999 V2000
   -2.4659    0.8853    0.7973 C   0  0  0  0  0  0  0  0  0  0  0  0
   -1.6940   -0.1557    0.0370 C   0  0  0  0  0  0  0  0  0  0  0  0
   -2.2668   -1.0417   -0.5819 O   0  0  0  0  0  0  0  0  0  0  0  0
   -0.2162   -0.0738    0.0626 C   0  0  0  0  0  0  0  0  0  0  0  0
    0.5075   -1.0523   -0.6234 C   0  0  0  0  0  0  0  0  0  0  0  0
    1.8879   -1.0309   -0.6367 C   0  0  0  0  0  0  0  0  0  0  0  0
    2.5681   -0.0279    0.0366 C   0  0  0  0  0  0  0  0  0  0  0  0
    1.8611    0.9493    0.7205 C   0  0  0  0  0  0  0  0  0  0  0  0
    0.4789    0.9312    0.7371 C   0  0  0  0  0  0  0  0  0  0  0  0
   -2.2400    1.8733    0.4045 H   0  0  0  0  0  0  0  0  0  0  0  0
   -2.1916    0.8557    1.8486 H   0  0  0  0  0  0  0  0  0  0  0  0
   -3.5298    0.6883    0.6932 H   0  0  0  0  0  0  0  0  0  0  0  0
   -0.0435   -1.8240   -1.1411 H   0  0  0  0  0  0  0  0  0  0  0  0
    2.4334   -1.7938   -1.1705 H   0  0  0  0  0  0  0  0  0  0  0  0
    3.6470   -0.0079    0.0282 H   0  0  0  0  0  0  0  0  0  0  0  0
    2.3920    1.7296    1.2437 H   0  0  0  0  0  0  0  0  0  0  0  0
   -0.0516    1.7002    1.2740 H   0  0  0  0  0  0  0  0  0  0  0  0
  1  2  1  0  0  0  0
  2  3  2  0  0  0  0
  2  4  1  0  0  0  0
  4  5  4  0  0  0  0
  5  6  4  0  0  0  0
  6  7  4  0  0  0  0
  7  8  4  0  0  0  0
  4  9  4  0  0  0  0
  8  9  4  0  0  0  0
  1 10  1  0  0  0  0
  1 11  1  0  0  0  0
  1 12  1  0  0  0  0
  5 13  1  0  0  0  0
  6 14  1  0  0  0  0
  7 15  1  0  0  0  0
  8 16  1  0  0  0  0
  9 17  1  0  0  0  0
M  END
