 xtb: 6.7.1 (edcfbbe)
          04042520253D

 15 14  0     0  0            999 V2000
    2.0680    0.0318   -0.1265 C   0  0  0  0  0  0  0  0  0  0  0  0
    0.7630    0.6923    0.3026 C   0  0  0  0  0  0  0  0  0  0  0  0
   -0.4589    0.0066   -0.3238 C   0  0  0  0  0  0  0  0  0  0  0  0
   -0.3236   -0.0501   -1.4102 H   0  0  0  0  0  0  0  0  0  0  0  0
   -1.7427    0.7752   -0.0085 C   0  0  0  0  0  0  0  0  0  0  0  0
   -0.5597   -1.3478    0.0819 O   0  0  0  0  0  0  0  0  0  0  0  0
    2.2228    0.1580   -1.1955 H   0  0  0  0  0  0  0  0  0  0  0  0
    2.0356   -1.0341    0.0876 H   0  0  0  0  0  0  0  0  0  0  0  0
    2.9108    0.4705    0.4012 H   0  0  0  0  0  0  0  0  0  0  0  0
    0.7634    1.7414    0.0047 H   0  0  0  0  0  0  0  0  0  0  0  0
    0.6710    0.6502    1.3907 H   0  0  0  0  0  0  0  0  0  0  0  0
   -2.6012    0.2385   -0.4046 H   0  0  0  0  0  0  0  0  0  0  0  0
   -1.8628    0.8856    1.0673 H   0  0  0  0  0  0  0  0  0  0  0  0
   -1.7073    1.7624   -0.4590 H   0  0  0  0  0  0  0  0  0  0  0  0
   -0.7251   -1.3711    1.0351 H   0  0  0  0  0  0  0  0  0  0  0  0
  1  2  1  0  0  0  0
  2  3  1  0  0  0  0
  3  4  1  0  0  0  0
  3  5  1  0  0  0  0
  3  6  1  0  0  0  0
  1  7  1  0  0  0  0
  1  8  1  0  0  0  0
  1  9  1  0  0  0  0
  2 10  1  0  0  0  0
  2 11  1  0  0  0  0
  5 12  1  0  0  0  0
  5 13  1  0  0  0  0
  5 14  1  0  0  0  0
  6 15  1  0  0  0  0
M  END
