 xtb: 6.7.1 (edcfbbe)
          04032521433D

 13 13  0     0  0            999 V2000
   -0.7323   -1.2043    0.0001 C   0  0  0  0  0  0  0  0  0  0  0  0
    0.6511   -1.2091   -0.0000 C   0  0  0  0  0  0  0  0  0  0  0  0
    1.3185   -0.0014    0.0000 C   0  0  0  0  0  0  0  0  0  0  0  0
    0.6521    1.2092    0.0001 C   0  0  0  0  0  0  0  0  0  0  0  0
   -0.7284    1.2054    0.0001 C   0  0  0  0  0  0  0  0  0  0  0  0
   -1.4302    0.0003    0.0002 C   0  0  0  0  0  0  0  0  0  0  0  0
   -2.7825    0.0568   -0.0002 O   0  0  0  0  0  0  0  0  0  0  0  0
    2.6886   -0.0029   -0.0001 F   0  0  0  0  0  0  0  0  0  0  0  0
   -1.2654   -2.1425    0.0001 H   0  0  0  0  0  0  0  0  0  0  0  0
    1.2070   -2.1323   -0.0000 H   0  0  0  0  0  0  0  0  0  0  0  0
    1.2093    2.1314   -0.0007 H   0  0  0  0  0  0  0  0  0  0  0  0
   -1.2844    2.1283   -0.0004 H   0  0  0  0  0  0  0  0  0  0  0  0
   -3.1694   -0.8324   -0.0006 H   0  0  0  0  0  0  0  0  0  0  0  0
  1  2  4  0  0  0  0
  2  3  4  0  0  0  0
  3  4  4  0  0  0  0
  4  5  4  0  0  0  0
  1  6  4  0  0  0  0
  5  6  4  0  0  0  0
  6  7  1  0  0  0  0
  3  8  1  0  0  0  0
  1  9  1  0  0  0  0
  2 10  1  0  0  0  0
  4 11  1  0  0  0  0
  5 12  1  0  0  0  0
  7 13  1  0  0  0  0
M  END
