6
 xtb: 6.7.1 (edcfbbe)
C           -0.62762171675570        0.96035977218327        0.00122884316565
C            0.41835368962604        0.13581092902795        0.00023783267051
Cl           2.03394910635430        0.77316896944861        0.00021897396147
Cl           0.30538308727193       -1.58714811382733       -0.00014585335808
Cl          -2.26277042208295        0.39641568218299        0.00022927547241
H           -0.50946167431568        2.03770804435973        0.00081240888119
