 xtb: 6.7.1 (edcfbbe)
          04062518003D

 24 24  0     0  0            999 V2000
   -2.4748   -0.8227    0.0517 C   0  0  0  0  0  0  0  0  0  0  0  0
   -1.0746   -0.5184    0.5984 C   0  0  0  0  0  0  0  0  0  0  0  0
   -1.0164   -0.8381    1.6510 H   0  0  0  0  0  0  0  0  0  0  0  0
   -0.7532    0.9978    0.5354 C   0  0  0  0  0  0  0  0  0  0  0  0
   -1.6393    1.5219    0.1580 H   0  0  0  0  0  0  0  0  0  0  0  0
    0.4251    1.2531   -0.4223 C   0  0  0  0  0  0  0  0  0  0  0  0
    0.7402    2.3007   -0.2954 H   0  0  0  0  0  0  0  0  0  0  0  0
    1.6219    0.3701   -0.0322 C   0  0  0  0  0  0  0  0  0  0  0  0
    2.3320    0.3890   -0.8689 H   0  0  0  0  0  0  0  0  0  0  0  0
    1.1701   -1.1021    0.1927 C   0  0  0  0  0  0  0  0  0  0  0  0
    1.2947   -1.3394    1.2654 H   0  0  0  0  0  0  0  0  0  0  0  0
   -0.1705   -1.2899   -0.1773 O   0  0  0  0  0  0  0  0  0  0  0  0
    1.9460   -2.0096   -0.5042 O   0  0  0  0  0  0  0  0  0  0  0  0
    2.1924    0.9144    1.1345 O   0  0  0  0  0  0  0  0  0  0  0  0
    0.1104    0.9800   -1.7617 O   0  0  0  0  0  0  0  0  0  0  0  0
   -0.5031    1.5379    1.8086 O   0  0  0  0  0  0  0  0  0  0  0  0
   -2.6611   -0.3005   -1.2380 O   0  0  0  0  0  0  0  0  0  0  0  0
   -3.2234   -0.3523    0.6907 H   0  0  0  0  0  0  0  0  0  0  0  0
   -2.6205   -1.9097    0.0564 H   0  0  0  0  0  0  0  0  0  0  0  0
    1.6496   -2.0371   -1.4272 H   0  0  0  0  0  0  0  0  0  0  0  0
    3.0660    0.5284    1.2896 H   0  0  0  0  0  0  0  0  0  0  0  0
   -0.6183    1.5521   -2.0431 H   0  0  0  0  0  0  0  0  0  0  0  0
    0.4296    1.3920    2.0412 H   0  0  0  0  0  0  0  0  0  0  0  0
   -1.9681   -0.6649   -1.8091 H   0  0  0  0  0  0  0  0  0  0  0  0
  1  2  1  0  0  0  0
  2  3  1  0  0  0  0
  2  4  1  0  0  0  0
  4  5  1  0  0  0  0
  4  6  1  0  0  0  0
  6  7  1  0  0  0  0
  6  8  1  0  0  0  0
  8  9  1  0  0  0  0
  8 10  1  0  0  0  0
 10 11  1  0  0  0  0
  2 12  1  0  0  0  0
 10 12  1  0  0  0  0
 10 13  1  0  0  0  0
  8 14  1  0  0  0  0
  6 15  1  0  0  0  0
  4 16  1  0  0  0  0
  1 17  1  0  0  0  0
  1 18  1  0  0  0  0
  1 19  1  0  0  0  0
 13 20  1  0  0  0  0
 14 21  1  0  0  0  0
 15 22  1  0  0  0  0
 16 23  1  0  0  0  0
 17 24  1  0  0  0  0
M  END
