 xtb: 6.7.1 (edcfbbe)
          04062518003D

 24 24  0     0  0            999 V2000
   -1.9100   -1.0148   -0.7530 C   0  0  0  0  0  0  0  0  0  0  0  0
   -1.2861   -0.1551    0.3591 C   0  0  0  0  0  0  0  0  0  0  0  0
   -2.0502    0.0557    1.1142 H   0  0  0  0  0  0  0  0  0  0  0  0
   -0.7615    1.1893   -0.1818 C   0  0  0  0  0  0  0  0  0  0  0  0
   -0.8427    1.1984   -1.2821 H   0  0  0  0  0  0  0  0  0  0  0  0
    0.7211    1.3572    0.1950 C   0  0  0  0  0  0  0  0  0  0  0  0
    0.7950    1.4354    1.2866 H   0  0  0  0  0  0  0  0  0  0  0  0
    1.4810    0.1173   -0.2884 C   0  0  0  0  0  0  0  0  0  0  0  0
    1.3114   -0.0164   -1.3645 H   0  0  0  0  0  0  0  0  0  0  0  0
    0.9176   -1.1275    0.4496 C   0  0  0  0  0  0  0  0  0  0  0  0
    1.5992   -1.3957    1.2696 H   0  0  0  0  0  0  0  0  0  0  0  0
   -0.2938   -0.8670    1.0943 O   0  0  0  0  0  0  0  0  0  0  0  0
    0.7557   -2.2150   -0.4252 O   0  0  0  0  0  0  0  0  0  0  0  0
    2.8717    0.2279   -0.1415 O   0  0  0  0  0  0  0  0  0  0  0  0
    1.2476    2.5581   -0.3049 O   0  0  0  0  0  0  0  0  0  0  0  0
   -1.5480    2.2232    0.3530 O   0  0  0  0  0  0  0  0  0  0  0  0
   -2.4171   -2.2260   -0.2580 O   0  0  0  0  0  0  0  0  0  0  0  0
   -1.1648   -1.2077   -1.5355 H   0  0  0  0  0  0  0  0  0  0  0  0
   -2.7570   -0.4758   -1.1806 H   0  0  0  0  0  0  0  0  0  0  0  0
    1.5975   -2.6703   -0.5644 H   0  0  0  0  0  0  0  0  0  0  0  0
    3.0894    0.6080    0.7219 H   0  0  0  0  0  0  0  0  0  0  0  0
    1.4013    2.4839   -1.2583 H   0  0  0  0  0  0  0  0  0  0  0  0
   -1.0918    3.0681    0.2098 H   0  0  0  0  0  0  0  0  0  0  0  0
   -1.6840   -2.7072    0.1553 H   0  0  0  0  0  0  0  0  0  0  0  0
  1  2  1  0  0  0  0
  2  3  1  0  0  0  0
  2  4  1  0  0  0  0
  4  5  1  0  0  0  0
  4  6  1  0  0  0  0
  6  7  1  0  0  0  0
  6  8  1  0  0  0  0
  8  9  1  0  0  0  0
  8 10  1  0  0  0  0
 10 11  1  0  0  0  0
  2 12  1  0  0  0  0
 10 12  1  0  0  0  0
 10 13  1  0  0  0  0
  8 14  1  0  0  0  0
  6 15  1  0  0  0  0
  4 16  1  0  0  0  0
  1 17  1  0  0  0  0
  1 18  1  0  0  0  0
  1 19  1  0  0  0  0
 13 20  1  0  0  0  0
 14 21  1  0  0  0  0
 15 22  1  0  0  0  0
 16 23  1  0  0  0  0
 17 24  1  0  0  0  0
M  END
