24
 xtb: 6.7.1 (edcfbbe)
C           -2.41492229621509       -1.15063012673870       -0.30098745117070
C           -1.10533828987037       -0.61685981098304        0.25984308258315
H           -1.13871600839734       -0.61650546409834        1.36195134299659
C           -0.78008268088009        0.80280800019901       -0.23074612214389
H           -0.84072325928712        0.81677541179068       -1.33153441832965
C            0.62519193877141        1.19524128686036        0.19117446285015
H            0.64531414160957        1.29802071291911        1.28804106290348
C            1.63020846372831        0.12482916488269       -0.21149803083873
H            1.68379536692565        0.06337449683916       -1.31053453771685
C            1.18989165131514       -1.23723897019166        0.32201986057940
H            1.15838777099206       -1.23848889116141        1.42150666951572
O           -0.10847766147118       -1.53970360580669       -0.20136597062120
O            2.06109266599504       -2.26895693099197       -0.05708436191925
O            2.89339162206197        0.50686567758780        0.33744156518351
O            0.93428734992778        2.45195164582839       -0.42305888289187
O           -1.68048599722143        1.76286433229223        0.33247690092819
O           -3.48765659480347       -0.32414997064673        0.18279517559112
H           -2.54959553133468       -2.18884033183248        0.02900364602749
H           -2.37318036694151       -1.12803377064333       -1.39770328053477
H            2.23174176431414       -2.19057258394794       -1.00854573183143
H            3.56196880665955       -0.08445086742092       -0.03245219157560
H            1.79872421911987        2.72781398767305       -0.09066565777589
H           -2.57250182000073        1.38967971360212        0.22588371240982
H           -4.26344212555524       -0.50414001532313       -0.36311428692914
