 xtb: 6.7.1 (edcfbbe)
          04062520053D

 27 27  0     0  0            999 V2000
   -3.3287    0.4509   -0.2531 C   0  0  0  0  0  0  0  0  0  0  0  0
   -1.8530    0.5199   -0.0277 C   0  0  0  0  0  0  0  0  0  0  0  0
   -1.0879    1.5582   -0.3433 C   0  0  0  0  0  0  0  0  0  0  0  0
    0.3827    1.4905   -0.0909 C   0  0  0  0  0  0  0  0  0  0  0  0
    0.9634    0.1700   -0.6515 C   0  0  0  0  0  0  0  0  0  0  0  0
    0.9940    0.2804   -1.7394 H   0  0  0  0  0  0  0  0  0  0  0  0
    0.0596   -1.0318   -0.3194 C   0  0  0  0  0  0  0  0  0  0  0  0
   -1.1409   -0.6714    0.5726 C   0  0  0  0  0  0  0  0  0  0  0  0
   -0.7640   -0.3904    1.5721 H   0  0  0  0  0  0  0  0  0  0  0  0
   -1.9342   -1.8364    0.6854 O   0  0  0  0  0  0  0  0  0  0  0  0
    2.3836    0.0020   -0.1677 C   0  0  0  0  0  0  0  0  0  0  0  0
    3.4078    0.2533   -0.9693 C   0  0  0  0  0  0  0  0  0  0  0  0
    2.5936   -0.4315    1.2534 C   0  0  0  0  0  0  0  0  0  0  0  0
   -3.8640    0.4528    0.6965 H   0  0  0  0  0  0  0  0  0  0  0  0
   -3.5811   -0.4658   -0.7839 H   0  0  0  0  0  0  0  0  0  0  0  0
   -3.6607    1.3049   -0.8368 H   0  0  0  0  0  0  0  0  0  0  0  0
   -1.4990    2.4514   -0.7881 H   0  0  0  0  0  0  0  0  0  0  0  0
    0.9018    2.3323   -0.5486 H   0  0  0  0  0  0  0  0  0  0  0  0
    0.5675    1.5321    0.9867 H   0  0  0  0  0  0  0  0  0  0  0  0
   -0.3544   -1.4522   -1.2372 H   0  0  0  0  0  0  0  0  0  0  0  0
    0.6196   -1.8267    0.1705 H   0  0  0  0  0  0  0  0  0  0  0  0
   -2.6648   -1.6647    1.2936 H   0  0  0  0  0  0  0  0  0  0  0  0
    4.4276    0.1686   -0.6337 H   0  0  0  0  0  0  0  0  0  0  0  0
    3.2700    0.5507   -1.9952 H   0  0  0  0  0  0  0  0  0  0  0  0
    2.5407   -1.5171    1.3284 H   0  0  0  0  0  0  0  0  0  0  0  0
    3.5735   -0.1207    1.6052 H   0  0  0  0  0  0  0  0  0  0  0  0
    1.8332   -0.0153    1.9088 H   0  0  0  0  0  0  0  0  0  0  0  0
  1  2  1  0  0  0  0
  2  3  2  0  0  0  0
  3  4  1  0  0  0  0
  4  5  1  0  0  0  0
  5  6  1  0  0  0  0
  5  7  1  0  0  0  0
  2  8  1  0  0  0  0
  7  8  1  0  0  0  0
  8  9  1  0  0  0  0
  8 10  1  0  0  0  0
  5 11  1  0  0  0  0
 11 12  2  0  0  0  0
 11 13  1  0  0  0  0
  1 14  1  0  0  0  0
  1 15  1  0  0  0  0
  1 16  1  0  0  0  0
  3 17  1  0  0  0  0
  4 18  1  0  0  0  0
  4 19  1  0  0  0  0
  7 20  1  0  0  0  0
  7 21  1  0  0  0  0
 10 22  1  0  0  0  0
 12 23  1  0  0  0  0
 12 24  1  0  0  0  0
 13 25  1  0  0  0  0
 13 26  1  0  0  0  0
 13 27  1  0  0  0  0
M  END
