 xtb: 6.7.1 (edcfbbe)
          04062518003D

 24 24  0     0  0            999 V2000
   -2.4879   -0.8177   -0.0732 C   0  0  0  0  0  0  0  0  0  0  0  0
   -1.1202   -0.5590    0.5737 C   0  0  0  0  0  0  0  0  0  0  0  0
   -1.1268   -0.9447    1.6067 H   0  0  0  0  0  0  0  0  0  0  0  0
   -0.7629    0.9470    0.6154 C   0  0  0  0  0  0  0  0  0  0  0  0
   -1.6514    1.5273    0.3340 H   0  0  0  0  0  0  0  0  0  0  0  0
    0.3636    1.2598   -0.3921 C   0  0  0  0  0  0  0  0  0  0  0  0
    0.6714    2.3047   -0.2369 H   0  0  0  0  0  0  0  0  0  0  0  0
    1.5932    0.3826   -0.0893 C   0  0  0  0  0  0  0  0  0  0  0  0
    2.2263    0.3646   -0.9827 H   0  0  0  0  0  0  0  0  0  0  0  0
    1.1540   -1.0723    0.2353 C   0  0  0  0  0  0  0  0  0  0  0  0
    1.2407   -1.2269    1.3249 H   0  0  0  0  0  0  0  0  0  0  0  0
   -0.1734   -1.3010   -0.1773 O   0  0  0  0  0  0  0  0  0  0  0  0
    1.9566   -2.0305   -0.3506 O   0  0  0  0  0  0  0  0  0  0  0  0
    2.3818    0.9282    0.9332 O   0  0  0  0  0  0  0  0  0  0  0  0
   -0.0214    1.0405   -1.7219 O   0  0  0  0  0  0  0  0  0  0  0  0
   -0.2852    1.3426    1.8821 O   0  0  0  0  0  0  0  0  0  0  0  0
   -2.6252   -0.1746   -1.3123 O   0  0  0  0  0  0  0  0  0  0  0  0
   -3.2814   -0.4261    0.5657 H   0  0  0  0  0  0  0  0  0  0  0  0
   -2.6107   -1.9023   -0.1794 H   0  0  0  0  0  0  0  0  0  0  0  0
    1.7768   -2.0590   -1.3035 H   0  0  0  0  0  0  0  0  0  0  0  0
    1.8098    1.1333    1.6919 H   0  0  0  0  0  0  0  0  0  0  0  0
   -0.7116    1.6740   -1.9685 H   0  0  0  0  0  0  0  0  0  0  0  0
   -1.0172    1.4221    2.5095 H   0  0  0  0  0  0  0  0  0  0  0  0
   -1.8849   -0.4488   -1.8756 H   0  0  0  0  0  0  0  0  0  0  0  0
  1  2  1  0  0  0  0
  2  3  1  0  0  0  0
  2  4  1  0  0  0  0
  4  5  1  0  0  0  0
  4  6  1  0  0  0  0
  6  7  1  0  0  0  0
  6  8  1  0  0  0  0
  8  9  1  0  0  0  0
  8 10  1  0  0  0  0
 10 11  1  0  0  0  0
  2 12  1  0  0  0  0
 10 12  1  0  0  0  0
 10 13  1  0  0  0  0
  8 14  1  0  0  0  0
  6 15  1  0  0  0  0
  4 16  1  0  0  0  0
  1 17  1  0  0  0  0
  1 18  1  0  0  0  0
  1 19  1  0  0  0  0
 13 20  1  0  0  0  0
 14 21  1  0  0  0  0
 15 22  1  0  0  0  0
 16 23  1  0  0  0  0
 17 24  1  0  0  0  0
M  END
