 xtb: 6.7.1 (edcfbbe)
          04032521133D

 11 11  0     0  0            999 V2000
    1.0969   -0.0011    0.0557 C   0  0  0  0  0  0  0  0  0  0  0  0
   -0.0128    1.0510   -0.0701 C   0  0  0  0  0  0  0  0  0  0  0  0
   -1.0193    0.0011    0.1407 N   0  0  0  0  0  0  0  0  0  0  0  0
   -0.0149   -1.0510   -0.0701 C   0  0  0  0  0  0  0  0  0  0  0  0
    1.5805   -0.0016    1.0276 H   0  0  0  0  0  0  0  0  0  0  0  0
    1.8469   -0.0019   -0.7302 H   0  0  0  0  0  0  0  0  0  0  0  0
   -0.0470    1.8222    0.7014 H   0  0  0  0  0  0  0  0  0  0  0  0
   -0.0459    1.5288   -1.0552 H   0  0  0  0  0  0  0  0  0  0  0  0
   -1.7969    0.0019   -0.5083 H   0  0  0  0  0  0  0  0  0  0  0  0
   -0.0508   -1.8221    0.7014 H   0  0  0  0  0  0  0  0  0  0  0  0
   -0.0491   -1.5287   -1.0552 H   0  0  0  0  0  0  0  0  0  0  0  0
  1  2  1  0  0  0  0
  2  3  1  0  0  0  0
  1  4  1  0  0  0  0
  3  4  1  0  0  0  0
  1  5  1  0  0  0  0
  1  6  1  0  0  0  0
  2  7  1  0  0  0  0
  2  8  1  0  0  0  0
  3  9  1  0  0  0  0
  4 10  1  0  0  0  0
  4 11  1  0  0  0  0
M  END
