22
 xtb: 6.7.1 (edcfbbe)
C            5.16143913670970        0.69586714154466        0.00132978128341
C            5.16143889252860       -0.69586910022433        0.00107883321951
C            3.95757293891610       -1.39756504942642        0.00028086161230
C            2.76588558621273       -0.69401747780588       -0.00029748504320
C            2.76588579339414        0.69401717801026       -0.00009737222407
C            3.95757352973866        1.39756387637670        0.00075159084507
O            1.58034213182320        1.42340246633422       -0.00085937322192
C            0.41981886189237        0.69713842914404       -0.00058171309197
C            0.41981870738008       -0.69713761152794       -0.00070166662826
C           -0.78634559173660       -1.39144310317374       -0.00033405710685
C           -2.00212342953430       -0.69805706765444        0.00001636335995
C           -2.00212351612287        0.69805906349912        0.00005961943059
C           -0.78634518852758        1.39144449872286       -0.00022736136062
Cl          -0.74247822104094        3.12316029811657       -0.00016195876551
Cl          -3.49415280414994        1.57542196229413        0.00048781258861
Cl          -3.49415304310641       -1.57542038216166        0.00045153272010
Cl          -0.74247931586751       -3.12315886330105       -0.00038239389534
O            1.58034151674043       -1.42340213578619       -0.00118441520091
H            6.09686958049399        1.24407887455889        0.00196700378873
H            6.09686913610697       -1.24408134786619        0.00150121175881
H            3.92983515737254       -2.48187286369165        0.00007174511355
H            3.92983622265345        2.48187175326380        0.00090942769497
