 xtb: 6.7.1 (edcfbbe)
          04062519153D

 24 24  0     0  0            999 V2000
   -2.4643   -1.1191    0.3291 C   0  0  0  0  0  0  0  0  0  0  0  0
   -1.0439   -0.5771    0.5656 C   0  0  0  0  0  0  0  0  0  0  0  0
   -0.8584   -0.4860    1.6477 H   0  0  0  0  0  0  0  0  0  0  0  0
   -0.8151    0.7958   -0.0885 C   0  0  0  0  0  0  0  0  0  0  0  0
   -0.9217    0.6808   -1.1757 H   0  0  0  0  0  0  0  0  0  0  0  0
    0.6148    1.2452    0.2201 C   0  0  0  0  0  0  0  0  0  0  0  0
    0.7114    1.3788    1.3103 H   0  0  0  0  0  0  0  0  0  0  0  0
    1.6239    0.1844   -0.2352 C   0  0  0  0  0  0  0  0  0  0  0  0
    1.6342    0.1504   -1.3341 H   0  0  0  0  0  0  0  0  0  0  0  0
    1.2248   -1.2083    0.2753 C   0  0  0  0  0  0  0  0  0  0  0  0
    1.4037   -1.2273    1.3718 H   0  0  0  0  0  0  0  0  0  0  0  0
   -0.1288   -1.5105    0.0211 O   0  0  0  0  0  0  0  0  0  0  0  0
    1.9920   -2.1467   -0.3782 O   0  0  0  0  0  0  0  0  0  0  0  0
    2.9040    0.4605    0.2675 O   0  0  0  0  0  0  0  0  0  0  0  0
    0.9371    2.4451   -0.4391 O   0  0  0  0  0  0  0  0  0  0  0  0
   -1.6882    1.7811    0.4012 O   0  0  0  0  0  0  0  0  0  0  0  0
   -3.0712   -0.4496   -0.7538 O   0  0  0  0  0  0  0  0  0  0  0  0
   -3.0591   -0.9732    1.2386 H   0  0  0  0  0  0  0  0  0  0  0  0
   -2.3641   -2.1899    0.1283 H   0  0  0  0  0  0  0  0  0  0  0  0
    1.6817   -3.0380   -0.1502 H   0  0  0  0  0  0  0  0  0  0  0  0
    3.1699    1.3375   -0.0503 H   0  0  0  0  0  0  0  0  0  0  0  0
    0.2367    3.0890   -0.2531 H   0  0  0  0  0  0  0  0  0  0  0  0
   -2.5780    1.5866    0.0682 H   0  0  0  0  0  0  0  0  0  0  0  0
   -3.8647   -0.9324   -1.0235 H   0  0  0  0  0  0  0  0  0  0  0  0
  1  2  1  0  0  0  0
  2  3  1  0  0  0  0
  2  4  1  0  0  0  0
  4  5  1  0  0  0  0
  4  6  1  0  0  0  0
  6  7  1  0  0  0  0
  6  8  1  0  0  0  0
  8  9  1  0  0  0  0
  8 10  1  0  0  0  0
 10 11  1  0  0  0  0
  2 12  1  0  0  0  0
 10 12  1  0  0  0  0
 10 13  1  0  0  0  0
  8 14  1  0  0  0  0
  6 15  1  0  0  0  0
  4 16  1  0  0  0  0
  1 17  1  0  0  0  0
  1 18  1  0  0  0  0
  1 19  1  0  0  0  0
 13 20  1  0  0  0  0
 14 21  1  0  0  0  0
 15 22  1  0  0  0  0
 16 23  1  0  0  0  0
 17 24  1  0  0  0  0
M  END
