 xtb: 6.7.1 (edcfbbe)
          04042523483D

 16 15  0     0  0            999 V2000
    1.2269    1.4456   -0.3479 C   0  0  0  0  0  0  0  0  0  0  0  0
    0.7164    0.0090   -0.4263 C   0  0  0  0  0  0  0  0  0  0  0  0
    1.5289   -0.9038    0.5020 C   0  0  0  0  0  0  0  0  0  0  0  0
   -0.7338   -0.0770    0.0156 C   0  0  0  0  0  0  0  0  0  0  0  0
   -1.1871    0.6293    0.8941 O   0  0  0  0  0  0  0  0  0  0  0  0
   -1.5577   -1.1109   -0.6926 C   0  0  0  0  0  0  0  0  0  0  0  0
    0.6886    2.0797   -1.0488 H   0  0  0  0  0  0  0  0  0  0  0  0
    1.0712    1.8388    0.6542 H   0  0  0  0  0  0  0  0  0  0  0  0
    2.2870    1.4841   -0.5823 H   0  0  0  0  0  0  0  0  0  0  0  0
    0.8012   -0.3614   -1.4509 H   0  0  0  0  0  0  0  0  0  0  0  0
    2.5792   -0.8664    0.2263 H   0  0  0  0  0  0  0  0  0  0  0  0
    1.1871   -1.9335    0.4351 H   0  0  0  0  0  0  0  0  0  0  0  0
    1.4263   -0.5705    1.5324 H   0  0  0  0  0  0  0  0  0  0  0  0
   -1.0119   -2.0475   -0.7613 H   0  0  0  0  0  0  0  0  0  0  0  0
   -1.7499   -0.7597   -1.7047 H   0  0  0  0  0  0  0  0  0  0  0  0
   -2.5048   -1.2592   -0.1815 H   0  0  0  0  0  0  0  0  0  0  0  0
  1  2  1  0  0  0  0
  2  3  1  0  0  0  0
  2  4  1  0  0  0  0
  4  5  2  0  0  0  0
  4  6  1  0  0  0  0
  1  7  1  0  0  0  0
  1  8  1  0  0  0  0
  1  9  1  0  0  0  0
  2 10  1  0  0  0  0
  3 11  1  0  0  0  0
  3 12  1  0  0  0  0
  3 13  1  0  0  0  0
  6 14  1  0  0  0  0
  6 15  1  0  0  0  0
  6 16  1  0  0  0  0
M  END
