18
CONF1
C -3.2003649081 0.5775619427 -0.0015767359
O -2.3073968272 -0.5420798457 0.0074543608
C -0.9545698765 -0.2583458734 0.0011655323
C -0.0980391084 -1.3618344728 -0.0014409037
C 1.2772337298 -1.1840867265 -0.0094895127
C 1.8377412499 0.1024887682 -0.0152466543
C 0.9694953908 1.1979149753 -0.0066116089
C -0.4150605105 1.0270241771 0.0005879212
N 3.2249635025 0.2786843520 -0.0958724835
H -3.0669573446 1.1983994159 0.8924423608
H -4.2067266540 0.1564966945 -0.0039487095
H -3.0588088730 1.1895767634 -0.9004163693
H -0.5210501780 -2.3616293429 0.0055170595
H 1.9299320674 -2.0528402230 -0.0113733270
H 1.3781518444 2.2047769557 -0.0061766405
H -1.0496162300 1.9050500850 0.0090436210
H 3.7486999432 -0.4929793256 0.2949778349
H 3.5395174999 1.1576318480 0.2926418614
18
CONF3
C -3.0918368307 0.0165704328 -0.7021862137
O -2.3299659775 -0.1932648295 0.5019092580
C -0.9535087397 -0.0951472419 0.2876088421
C -0.2098645512 -1.2412009707 0.0242743968
C 1.1672710409 -1.1540350235 -0.1450717147
C 1.8220129513 0.0838433538 -0.0587415513
C 1.0560429908 1.2314156437 0.1978928761
C -0.3206361532 1.1417468182 0.3682406554
N 3.2105265134 0.1625700541 -0.1590043596
H -4.1455056785 -0.0748481565 -0.4294283198
H -2.8397964921 -0.7401900147 -1.4558961127
H -2.9039154304 1.0168510984 -1.1121151262
H -0.7116852204 -2.2017449124 -0.0448346199
H 1.7461633546 -2.0517469095 -0.3441209535
H 1.5485333389 2.1975903325 0.2674653821
H -0.9078783019 2.0332433359 0.5674718166
H 3.5500848585 1.0663014811 -0.4583951018
H 3.6258255580 -0.5866917873 -0.6953382233
18
CONF2
C -3.0839982462 0.0096021589 0.7407154804
O -2.3348527987 -0.1860944795 -0.4755865200
C -0.9565600495 -0.0901754961 -0.2707437338
C -0.2127150707 -1.2365543333 -0.0096448571
C 1.1650076726 -1.1502195612 0.1548005896
C 1.8201586758 0.0875734057 0.0681108850
C 1.0552655768 1.2339766553 -0.1971486689
C -0.3221315138 1.1449883705 -0.3622532319
N 3.1907219666 0.1845867797 0.3016348038
H -4.1403889366 -0.0802003435 0.4788522204
H -2.8911668172 1.0055809861 1.1581252068
H -2.8212995937 -0.7551811925 1.4821532711
H -0.7135968418 -2.1977619530 0.0562326679
H 1.7441424341 -2.0484181109 0.3506924359
H 1.5490799524 2.1986363100 -0.2765184105
H -0.9077661346 2.0352685278 -0.5711158627
H 3.6283106058 0.9850713357 -0.1333447230
H 3.7022291624 -0.6664830807 0.1133331612
