26
CONF1
C -3.9508596112 -0.3131653930 -0.0020577210
C -3.7391974936 1.0662694978 -0.0018930056
C -2.4476646241 1.5760139791 -0.0007219311
C -1.3491420098 0.7130248146 0.0001861580
C -1.5637165278 -0.6757174404 0.0000660275
C -2.8676519731 -1.1798314375 -0.0009707156
C -0.4202995016 -1.6075683177 0.0009962640
O -0.5997628302 -2.8296183299 0.0020716230
C 0.9466049962 -1.0326641754 0.0004284379
C 2.0154770593 -1.9136216346 -0.0000637592
C 3.3248427504 -1.4181620931 -0.0010736670
C 3.5628979608 -0.0651494834 -0.0015179808
C 2.4951036570 0.8685303205 -0.0008031592
C 1.1531440321 0.3754172018 0.0001757432
C 0.0214932681 1.2844861557 0.0010630635
O 0.1572682487 2.5254157305 0.0020196877
N 2.7918959456 2.1819682321 -0.0013186978
H -4.9613416557 -0.7078889033 -0.0030688614
H -4.5861242202 1.7445619015 -0.0027261294
H -2.2815209661 2.6470043316 -0.0005817407
H -3.0204445994 -2.2531041962 -0.0010248622
H 1.8309407683 -2.9807757489 0.0002298359
H 4.1621088035 -2.1084895630 -0.0015582481
H 4.5795749695 0.3168726017 -0.0023649355
H 2.0398247120 2.8556249045 0.0003459756
H 3.7572443821 2.4699489060 -0.0013745126
