 xtb: 6.7.1 (edcfbbe)
          04032521163D

 14 14  0     0  0            999 V2000
   -1.0486    0.7707   -0.0706 C   0  0  0  0  0  0  0  0  0  0  0  0
   -1.0501   -0.7684   -0.0715 C   0  0  0  0  0  0  0  0  0  0  0  0
    0.4240   -1.1435    0.1979 C   0  0  0  0  0  0  0  0  0  0  0  0
    1.2284   -0.0015   -0.2152 N   0  0  0  0  0  0  0  0  0  0  0  0
    0.4267    1.1427    0.1972 C   0  0  0  0  0  0  0  0  0  0  0  0
   -1.7036    1.1824    0.6939 H   0  0  0  0  0  0  0  0  0  0  0  0
   -1.3683    1.1599   -1.0373 H   0  0  0  0  0  0  0  0  0  0  0  0
   -1.7072   -1.1798    0.6915 H   0  0  0  0  0  0  0  0  0  0  0  0
   -1.3690   -1.1558   -1.0392 H   0  0  0  0  0  0  0  0  0  0  0  0
    0.5835   -1.2841    1.2709 H   0  0  0  0  0  0  0  0  0  0  0  0
    0.7374   -2.0477   -0.3215 H   0  0  0  0  0  0  0  0  0  0  0  0
    1.3001   -0.0019   -1.2293 H   0  0  0  0  0  0  0  0  0  0  0  0
    0.5873    1.2842    1.2699 H   0  0  0  0  0  0  0  0  0  0  0  0
    0.7417    2.0456   -0.3234 H   0  0  0  0  0  0  0  0  0  0  0  0
  1  2  1  0  0  0  0
  2  3  1  0  0  0  0
  3  4  1  0  0  0  0
  1  5  1  0  0  0  0
  4  5  1  0  0  0  0
  1  6  1  0  0  0  0
  1  7  1  0  0  0  0
  2  8  1  0  0  0  0
  2  9  1  0  0  0  0
  3 10  1  0  0  0  0
  3 11  1  0  0  0  0
  4 12  1  0  0  0  0
  5 13  1  0  0  0  0
  5 14  1  0  0  0  0
M  END
