16
 xtb: 6.7.1 (edcfbbe)
C            2.48290399865100        1.20868861381343       -0.02633264862781
C            1.69976201999288       -0.06846218029577        0.00035046292577
O            2.26356338824557       -1.16155186144401        0.02416174822016
C            0.21175560440557        0.00786889977155        0.00008988917738
C           -0.48334861708427        1.21993952235554       -0.00705682106016
C           -1.87072097783581        1.19458535570139       -0.00651376349822
C           -2.51566687313702       -0.03536724839094        0.00018784669955
N           -1.87042043383880       -1.21460978021250        0.00657572629875
C           -0.53570661911742       -1.17541386261932        0.00695000566901
H            2.22125214254070        1.79830122996583       -0.91202867488177
H            3.54999158743797        0.98584888689857       -0.03288349196004
H            2.23836260659216        1.82155401323923        0.84864268194489
H            0.04238078404938        2.16823143240536       -0.01203934847385
H           -2.44717153513897        2.11294767485257       -0.01131364201216
H           -3.60210522101827       -0.08174124066353        0.00050075538021
H           -0.02100212935790       -2.13238963018141        0.01127694707408
