 xtb: 6.7.1 (edcfbbe)
          04032521123D

 17 17  0     0  0            999 V2000
   -1.3684   -0.0019    0.3895 C   0  0  0  0  0  0  0  0  0  0  0  0
   -0.7669    1.2554   -0.2388 C   0  0  0  0  0  0  0  0  0  0  0  0
    0.7810    1.1963   -0.1929 C   0  0  0  0  0  0  0  0  0  0  0  0
    1.3080    0.0023    0.4430 N   0  0  0  0  0  0  0  0  0  0  0  0
    0.7836   -1.2015   -0.1767 C   0  0  0  0  0  0  0  0  0  0  0  0
   -0.7637   -1.2506   -0.2516 C   0  0  0  0  0  0  0  0  0  0  0  0
   -2.4510   -0.0022    0.2526 H   0  0  0  0  0  0  0  0  0  0  0  0
   -1.1764   -0.0077    1.4656 H   0  0  0  0  0  0  0  0  0  0  0  0
   -1.1030    1.3273   -1.2743 H   0  0  0  0  0  0  0  0  0  0  0  0
   -1.1299    2.1375    0.2902 H   0  0  0  0  0  0  0  0  0  0  0  0
    1.1848    1.2143   -1.2096 H   0  0  0  0  0  0  0  0  0  0  0  0
    1.1840    2.0588    0.3407 H   0  0  0  0  0  0  0  0  0  0  0  0
    1.0638    0.0094    1.4283 H   0  0  0  0  0  0  0  0  0  0  0  0
    1.2064   -1.2454   -1.1850 H   0  0  0  0  0  0  0  0  0  0  0  0
    1.1701   -2.0548    0.3833 H   0  0  0  0  0  0  0  0  0  0  0  0
   -1.0824   -1.3001   -1.2939 H   0  0  0  0  0  0  0  0  0  0  0  0
   -1.1406   -2.1407    0.2537 H   0  0  0  0  0  0  0  0  0  0  0  0
  1  2  1  0  0  0  0
  2  3  1  0  0  0  0
  3  4  1  0  0  0  0
  4  5  1  0  0  0  0
  1  6  1  0  0  0  0
  5  6  1  0  0  0  0
  1  7  1  0  0  0  0
  1  8  1  0  0  0  0
  2  9  1  0  0  0  0
  2 10  1  0  0  0  0
  3 11  1  0  0  0  0
  3 12  1  0  0  0  0
  4 13  1  0  0  0  0
  5 14  1  0  0  0  0
  5 15  1  0  0  0  0
  6 16  1  0  0  0  0
  6 17  1  0  0  0  0
M  END
