 xtb: 6.7.1 (edcfbbe)
          04042518283D

 12 11  0     0  0            999 V2000
    1.8945   -0.1052   -1.0676 C   0  0  0  0  0  0  0  0  0  0  0  0
    1.2267   -0.2084    0.1919 O   0  0  0  0  0  0  0  0  0  0  0  0
   -0.3628   -0.0461    0.1796 S   0  0  0  0  0  0  0  0  0  0  0  0
   -0.7918   -0.4932    1.4805 O   0  0  0  0  0  0  0  0  0  0  0  0
   -0.8913   -0.7725   -0.9553 O   0  0  0  0  0  0  0  0  0  0  0  0
   -0.6576    1.7056   -0.0118 C   0  0  0  0  0  0  0  0  0  0  0  0
    1.2283   -0.4669   -1.8509 H   0  0  0  0  0  0  0  0  0  0  0  0
    2.7805   -0.7328   -1.0049 H   0  0  0  0  0  0  0  0  0  0  0  0
    2.1795    0.9307   -1.2508 H   0  0  0  0  0  0  0  0  0  0  0  0
   -1.0846    2.0511    0.9185 H   0  0  0  0  0  0  0  0  0  0  0  0
    0.2879    2.1891   -0.2093 H   0  0  0  0  0  0  0  0  0  0  0  0
   -1.3445    1.8255   -0.8373 H   0  0  0  0  0  0  0  0  0  0  0  0
  1  2  1  0  0  0  0
  2  3  1  0  0  0  0
  3  4  2  0  0  0  0
  3  5  2  0  0  0  0
  3  6  1  0  0  0  0
  1  7  1  0  0  0  0
  1  8  1  0  0  0  0
  1  9  1  0  0  0  0
  6 10  1  0  0  0  0
  6 11  1  0  0  0  0
  6 12  1  0  0  0  0
M  END
