 xtb: 6.7.1 (edcfbbe)
          04062519153D

 24 24  0     0  0            999 V2000
   -2.5687   -0.6541   -0.3220 C   0  0  0  0  0  0  0  0  0  0  0  0
   -1.1825   -0.2963    0.2242 C   0  0  0  0  0  0  0  0  0  0  0  0
   -1.2348   -0.2222    1.3214 H   0  0  0  0  0  0  0  0  0  0  0  0
   -0.6981    1.0459   -0.3367 C   0  0  0  0  0  0  0  0  0  0  0  0
   -0.6918    0.9787   -1.4382 H   0  0  0  0  0  0  0  0  0  0  0  0
    0.7347    1.3322    0.1504 C   0  0  0  0  0  0  0  0  0  0  0  0
    0.7256    1.4624    1.2390 H   0  0  0  0  0  0  0  0  0  0  0  0
    1.6424    0.1501   -0.1956 C   0  0  0  0  0  0  0  0  0  0  0  0
    1.7161    0.0495   -1.2908 H   0  0  0  0  0  0  0  0  0  0  0  0
    1.0167   -1.1515    0.3409 C   0  0  0  0  0  0  0  0  0  0  0  0
    0.9932   -1.0978    1.4497 H   0  0  0  0  0  0  0  0  0  0  0  0
   -0.2930   -1.3373   -0.1424 O   0  0  0  0  0  0  0  0  0  0  0  0
    1.8031   -2.1970   -0.0992 O   0  0  0  0  0  0  0  0  0  0  0  0
    2.9072    0.3636    0.3701 O   0  0  0  0  0  0  0  0  0  0  0  0
    1.1903    2.5577   -0.3615 O   0  0  0  0  0  0  0  0  0  0  0  0
   -1.5787    2.0557    0.0777 O   0  0  0  0  0  0  0  0  0  0  0  0
   -3.1347   -1.7631    0.3228 O   0  0  0  0  0  0  0  0  0  0  0  0
   -2.4836   -0.8294   -1.4012 H   0  0  0  0  0  0  0  0  0  0  0  0
   -3.2354    0.1899   -0.1406 H   0  0  0  0  0  0  0  0  0  0  0  0
    1.3879   -3.0463    0.1156 H   0  0  0  0  0  0  0  0  0  0  0  0
    3.4623   -0.4130    0.2007 H   0  0  0  0  0  0  0  0  0  0  0  0
    1.4868    2.4494   -1.2769 H   0  0  0  0  0  0  0  0  0  0  0  0
   -1.1263    2.9103   -0.0181 H   0  0  0  0  0  0  0  0  0  0  0  0
   -2.5665   -2.5320    0.1716 H   0  0  0  0  0  0  0  0  0  0  0  0
  1  2  1  0  0  0  0
  2  3  1  0  0  0  0
  2  4  1  0  0  0  0
  4  5  1  0  0  0  0
  4  6  1  0  0  0  0
  6  7  1  0  0  0  0
  6  8  1  0  0  0  0
  8  9  1  0  0  0  0
  8 10  1  0  0  0  0
 10 11  1  0  0  0  0
  2 12  1  0  0  0  0
 10 12  1  0  0  0  0
 10 13  1  0  0  0  0
  8 14  1  0  0  0  0
  6 15  1  0  0  0  0
  4 16  1  0  0  0  0
  1 17  1  0  0  0  0
  1 18  1  0  0  0  0
  1 19  1  0  0  0  0
 13 20  1  0  0  0  0
 14 21  1  0  0  0  0
 15 22  1  0  0  0  0
 16 23  1  0  0  0  0
 17 24  1  0  0  0  0
M  END
