 xtb: 6.7.1 (edcfbbe)
          04032521513D

 19 19  0     0  0            999 V2000
    2.2826   -0.3800   -0.5630 C   0  0  0  0  0  0  0  0  0  0  0  0
    1.0783   -0.2792    0.3741 C   0  0  0  0  0  0  0  0  0  0  0  0
    1.3599   -0.6694    1.3604 H   0  0  0  0  0  0  0  0  0  0  0  0
    0.5187    1.1461    0.4586 C   0  0  0  0  0  0  0  0  0  0  0  0
   -0.5450    1.1470   -0.6374 C   0  0  0  0  0  0  0  0  0  0  0  0
   -1.0660   -0.2955   -0.5975 C   0  0  0  0  0  0  0  0  0  0  0  0
   -1.3117   -0.6696   -1.6000 H   0  0  0  0  0  0  0  0  0  0  0  0
    0.0095   -1.0974   -0.1044 O   0  0  0  0  0  0  0  0  0  0  0  0
   -2.2909   -0.4505    0.3043 C   0  0  0  0  0  0  0  0  0  0  0  0
    2.5537   -1.4243   -0.6934 H   0  0  0  0  0  0  0  0  0  0  0  0
    2.0404    0.0379   -1.5365 H   0  0  0  0  0  0  0  0  0  0  0  0
    3.1268    0.1569   -0.1404 H   0  0  0  0  0  0  0  0  0  0  0  0
    0.0608    1.3145    1.4331 H   0  0  0  0  0  0  0  0  0  0  0  0
    1.2919    1.8924    0.2979 H   0  0  0  0  0  0  0  0  0  0  0  0
   -1.3392    1.8656   -0.4538 H   0  0  0  0  0  0  0  0  0  0  0  0
   -0.0932    1.3598   -1.6060 H   0  0  0  0  0  0  0  0  0  0  0  0
   -2.0858   -0.0466    1.2922 H   0  0  0  0  0  0  0  0  0  0  0  0
   -2.5349   -1.5045    0.4060 H   0  0  0  0  0  0  0  0  0  0  0  0
   -3.1390    0.0711   -0.1296 H   0  0  0  0  0  0  0  0  0  0  0  0
  1  2  1  0  0  0  0
  2  3  1  0  0  0  0
  2  4  1  0  0  0  0
  4  5  1  0  0  0  0
  5  6  1  0  0  0  0
  6  7  1  0  0  0  0
  2  8  1  0  0  0  0
  6  8  1  0  0  0  0
  6  9  1  0  0  0  0
  1 10  1  0  0  0  0
  1 11  1  0  0  0  0
  1 12  1  0  0  0  0
  4 13  1  0  0  0  0
  4 14  1  0  0  0  0
  5 15  1  0  0  0  0
  5 16  1  0  0  0  0
  9 17  1  0  0  0  0
  9 18  1  0  0  0  0
  9 19  1  0  0  0  0
M  END
