 xtb: 6.7.1 (edcfbbe)
          04062518293D

 26 27  0     0  0            999 V2000
   -3.1765   -0.6400    1.6780 C   0  0  0  0  0  0  0  0  0  0  0  0
   -2.2518   -0.0338    0.7458 N   0  0  0  0  0  0  0  0  0  0  0  0
   -2.3556   -0.1857   -0.5796 C   0  0  0  0  0  0  0  0  0  0  0  0
   -3.2485   -0.7969   -1.1397 O   0  0  0  0  0  0  0  0  0  0  0  0
   -1.4097    0.4131   -1.3405 O   0  0  0  0  0  0  0  0  0  0  0  0
   -0.2431    0.9326   -0.7678 C   0  0  0  0  0  0  0  0  0  0  0  0
   -0.0534    2.2896   -0.7796 C   0  0  0  0  0  0  0  0  0  0  0  0
    1.1335    2.8374   -0.2702 C   0  0  0  0  0  0  0  0  0  0  0  0
    2.1041    2.0256    0.2453 C   0  0  0  0  0  0  0  0  0  0  0  0
    1.9408    0.6240    0.2616 C   0  0  0  0  0  0  0  0  0  0  0  0
    0.7487    0.0525   -0.2597 C   0  0  0  0  0  0  0  0  0  0  0  0
    0.6012   -1.3505   -0.2627 C   0  0  0  0  0  0  0  0  0  0  0  0
    1.5869   -2.1537    0.2401 C   0  0  0  0  0  0  0  0  0  0  0  0
    2.7595   -1.5922    0.7688 C   0  0  0  0  0  0  0  0  0  0  0  0
    2.9333   -0.2364    0.7767 C   0  0  0  0  0  0  0  0  0  0  0  0
   -3.9319   -1.1699    1.1016 H   0  0  0  0  0  0  0  0  0  0  0  0
   -3.6535    0.1287    2.2840 H   0  0  0  0  0  0  0  0  0  0  0  0
   -2.6496   -1.3424    2.3230 H   0  0  0  0  0  0  0  0  0  0  0  0
   -1.4829    0.4976    1.1276 H   0  0  0  0  0  0  0  0  0  0  0  0
   -0.8226    2.9252   -1.1889 H   0  0  0  0  0  0  0  0  0  0  0  0
    1.2639    3.9075   -0.2893 H   0  0  0  0  0  0  0  0  0  0  0  0
    3.0159    2.4436    0.6429 H   0  0  0  0  0  0  0  0  0  0  0  0
   -0.2977   -1.7828   -0.6802 H   0  0  0  0  0  0  0  0  0  0  0  0
    1.4669   -3.2260    0.2298 H   0  0  0  0  0  0  0  0  0  0  0  0
    3.5246   -2.2428    1.1633 H   0  0  0  0  0  0  0  0  0  0  0  0
    3.8366    0.1999    1.1750 H   0  0  0  0  0  0  0  0  0  0  0  0
  1  2  1  0  0  0  0
  2  3  4  0  0  0  0
  3  4  2  0  0  0  0
  3  5  1  0  0  0  0
  5  6  1  0  0  0  0
  6  7  2  0  0  0  0
  7  8  4  0  0  0  0
  8  9  2  0  0  0  0
  9 10  4  0  0  0  0
  6 11  4  0  0  0  0
 10 11  4  0  0  0  0
 11 12  4  0  0  0  0
 12 13  2  0  0  0  0
 13 14  4  0  0  0  0
 10 15  4  0  0  0  0
 14 15  2  0  0  0  0
  1 16  1  0  0  0  0
  1 17  1  0  0  0  0
  1 18  1  0  0  0  0
  2 19  1  0  0  0  0
  7 20  1  0  0  0  0
  8 21  1  0  0  0  0
  9 22  1  0  0  0  0
 12 23  1  0  0  0  0
 13 24  1  0  0  0  0
 14 25  1  0  0  0  0
 15 26  1  0  0  0  0
M  END
