 xtb: 6.7.1 (edcfbbe)
          04032522143D

 12 11  0     0  0            999 V2000
   -1.9619   -0.2242    0.5005 C   0  0  0  0  0  0  0  0  0  0  0  0
   -1.1752   -0.1097   -0.7994 C   0  0  0  0  0  0  0  0  0  0  0  0
    0.1137    0.6847   -0.6478 C   0  0  0  0  0  0  0  0  0  0  0  0
    1.3805   -0.1634    0.3713 S   0  0  0  0  0  0  0  0  0  0  0  0
   -1.4073   -0.8018    1.2365 H   0  0  0  0  0  0  0  0  0  0  0  0
   -2.1681    0.7620    0.9108 H   0  0  0  0  0  0  0  0  0  0  0  0
   -2.9082   -0.7270    0.3204 H   0  0  0  0  0  0  0  0  0  0  0  0
   -1.7863    0.3958   -1.5510 H   0  0  0  0  0  0  0  0  0  0  0  0
   -0.9377   -1.1074   -1.1744 H   0  0  0  0  0  0  0  0  0  0  0  0
    0.5989    0.8177   -1.6146 H   0  0  0  0  0  0  0  0  0  0  0  0
   -0.0646    1.6611   -0.2000 H   0  0  0  0  0  0  0  0  0  0  0  0
    0.7836    0.0185    1.5424 H   0  0  0  0  0  0  0  0  0  0  0  0
  1  2  1  0  0  0  0
  2  3  1  0  0  0  0
  3  4  1  0  0  0  0
  1  5  1  0  0  0  0
  1  6  1  0  0  0  0
  1  7  1  0  0  0  0
  2  8  1  0  0  0  0
  2  9  1  0  0  0  0
  3 10  1  0  0  0  0
  3 11  1  0  0  0  0
  4 12  1  0  0  0  0
M  END
