 xtb: 6.7.1 (edcfbbe)
          04042523563D

 17 16  0     0  0            999 V2000
    2.1856    1.0365   -0.4086 C   0  0  0  0  0  0  0  0  0  0  0  0
    1.1659   -0.0804   -0.2458 C   0  0  0  0  0  0  0  0  0  0  0  0
    1.6110   -1.1307    0.7653 C   0  0  0  0  0  0  0  0  0  0  0  0
   -0.0599    0.5377    0.2090 O   0  0  0  0  0  0  0  0  0  0  0  0
   -1.2167   -0.0363   -0.0853 C   0  0  0  0  0  0  0  0  0  0  0  0
   -1.3167   -1.0624   -0.7283 O   0  0  0  0  0  0  0  0  0  0  0  0
   -2.3721    0.7422    0.4715 C   0  0  0  0  0  0  0  0  0  0  0  0
    3.1201    0.6244   -0.7746 H   0  0  0  0  0  0  0  0  0  0  0  0
    1.8220    1.7776   -1.1148 H   0  0  0  0  0  0  0  0  0  0  0  0
    2.3552    1.5193    0.5496 H   0  0  0  0  0  0  0  0  0  0  0  0
    0.9531   -0.5625   -1.2090 H   0  0  0  0  0  0  0  0  0  0  0  0
    1.7645   -0.6685    1.7369 H   0  0  0  0  0  0  0  0  0  0  0  0
    2.5382   -1.5860    0.4331 H   0  0  0  0  0  0  0  0  0  0  0  0
    0.8525   -1.9054    0.8556 H   0  0  0  0  0  0  0  0  0  0  0  0
   -3.3044    0.3105    0.1232 H   0  0  0  0  0  0  0  0  0  0  0  0
   -2.2898    1.7801    0.1625 H   0  0  0  0  0  0  0  0  0  0  0  0
   -2.3288    0.7079    1.5571 H   0  0  0  0  0  0  0  0  0  0  0  0
  1  2  1  0  0  0  0
  2  3  1  0  0  0  0
  2  4  1  0  0  0  0
  4  5  1  0  0  0  0
  5  6  2  0  0  0  0
  5  7  1  0  0  0  0
  1  8  1  0  0  0  0
  1  9  1  0  0  0  0
  1 10  1  0  0  0  0
  2 11  1  0  0  0  0
  3 12  1  0  0  0  0
  3 13  1  0  0  0  0
  3 14  1  0  0  0  0
  7 15  1  0  0  0  0
  7 16  1  0  0  0  0
  7 17  1  0  0  0  0
M  END
