 xtb: 6.7.1 (edcfbbe)
          04062518493D

 24 24  0     0  0            999 V2000
   -2.3976   -1.1323   -0.3408 C   0  0  0  0  0  0  0  0  0  0  0  0
   -1.0697   -0.6193    0.2423 C   0  0  0  0  0  0  0  0  0  0  0  0
   -1.1144   -0.6182    1.3443 H   0  0  0  0  0  0  0  0  0  0  0  0
   -0.7803    0.8271   -0.2115 C   0  0  0  0  0  0  0  0  0  0  0  0
   -0.8484    0.8889   -1.3085 H   0  0  0  0  0  0  0  0  0  0  0  0
    0.6402    1.2432    0.1906 C   0  0  0  0  0  0  0  0  0  0  0  0
    0.6723    1.3522    1.2855 H   0  0  0  0  0  0  0  0  0  0  0  0
    1.6540    0.1714   -0.2288 C   0  0  0  0  0  0  0  0  0  0  0  0
    1.6872    0.1382   -1.3297 H   0  0  0  0  0  0  0  0  0  0  0  0
    1.2133   -1.2091    0.2926 C   0  0  0  0  0  0  0  0  0  0  0  0
    1.2212   -1.1937    1.3958 H   0  0  0  0  0  0  0  0  0  0  0  0
   -0.0715   -1.5213   -0.1913 O   0  0  0  0  0  0  0  0  0  0  0  0
    2.0878   -2.2065   -0.0938 O   0  0  0  0  0  0  0  0  0  0  0  0
    2.9075    0.5351    0.2926 O   0  0  0  0  0  0  0  0  0  0  0  0
    0.9304    2.4699   -0.4280 O   0  0  0  0  0  0  0  0  0  0  0  0
   -1.6760    1.7220    0.3931 O   0  0  0  0  0  0  0  0  0  0  0  0
   -3.5030   -0.3643    0.0608 O   0  0  0  0  0  0  0  0  0  0  0  0
   -2.5113   -2.1854   -0.0654 H   0  0  0  0  0  0  0  0  0  0  0  0
   -2.3505   -1.0644   -1.4300 H   0  0  0  0  0  0  0  0  0  0  0  0
    1.9215   -2.4387   -1.0215 H   0  0  0  0  0  0  0  0  0  0  0  0
    3.5347   -0.1899    0.1477 H   0  0  0  0  0  0  0  0  0  0  0  0
    1.8204    2.7429   -0.1590 H   0  0  0  0  0  0  0  0  0  0  0  0
   -2.5809    1.4564    0.1467 H   0  0  0  0  0  0  0  0  0  0  0  0
   -3.7226   -0.5610    0.9828 H   0  0  0  0  0  0  0  0  0  0  0  0
  1  2  1  0  0  0  0
  2  3  1  0  0  0  0
  2  4  1  0  0  0  0
  4  5  1  0  0  0  0
  4  6  1  0  0  0  0
  6  7  1  0  0  0  0
  6  8  1  0  0  0  0
  8  9  1  0  0  0  0
  8 10  1  0  0  0  0
 10 11  1  0  0  0  0
  2 12  1  0  0  0  0
 10 12  1  0  0  0  0
 10 13  1  0  0  0  0
  8 14  1  0  0  0  0
  6 15  1  0  0  0  0
  4 16  1  0  0  0  0
  1 17  1  0  0  0  0
  1 18  1  0  0  0  0
  1 19  1  0  0  0  0
 13 20  1  0  0  0  0
 14 21  1  0  0  0  0
 15 22  1  0  0  0  0
 16 23  1  0  0  0  0
 17 24  1  0  0  0  0
M  END
