 xtb: 6.7.1 (edcfbbe)
          04062518003D

 24 24  0     0  0            999 V2000
   -2.4774   -0.4918   -0.2506 C   0  0  0  0  0  0  0  0  0  0  0  0
   -1.0428   -0.2082    0.1815 C   0  0  0  0  0  0  0  0  0  0  0  0
   -0.9673   -0.4101    1.2610 H   0  0  0  0  0  0  0  0  0  0  0  0
   -0.6267    1.2557   -0.0867 C   0  0  0  0  0  0  0  0  0  0  0  0
   -1.1860    1.6518   -0.9415 H   0  0  0  0  0  0  0  0  0  0  0  0
    0.8772    1.3034   -0.4493 C   0  0  0  0  0  0  0  0  0  0  0  0
    1.2495    2.3064   -0.2143 H   0  0  0  0  0  0  0  0  0  0  0  0
    1.6474    0.2747    0.3996 C   0  0  0  0  0  0  0  0  0  0  0  0
    2.6997    0.2871    0.0931 H   0  0  0  0  0  0  0  0  0  0  0  0
    1.1004   -1.1447    0.0998 C   0  0  0  0  0  0  0  0  0  0  0  0
    1.0019   -1.6925    1.0614 H   0  0  0  0  0  0  0  0  0  0  0  0
   -0.1743   -1.0919   -0.5089 O   0  0  0  0  0  0  0  0  0  0  0  0
    1.9693   -1.7822   -0.7614 O   0  0  0  0  0  0  0  0  0  0  0  0
    1.4836    0.6257    1.7511 O   0  0  0  0  0  0  0  0  0  0  0  0
    1.1038    1.1207   -1.8194 O   0  0  0  0  0  0  0  0  0  0  0  0
   -0.9391    2.0894    0.9958 O   0  0  0  0  0  0  0  0  0  0  0  0
   -2.9052   -1.6871    0.3611 O   0  0  0  0  0  0  0  0  0  0  0  0
   -2.5018   -0.5781   -1.3428 H   0  0  0  0  0  0  0  0  0  0  0  0
   -3.0963    0.3552    0.0701 H   0  0  0  0  0  0  0  0  0  0  0  0
    1.5909   -2.6304   -1.0424 H   0  0  0  0  0  0  0  0  0  0  0  0
    2.1982    0.2545    2.2871 H   0  0  0  0  0  0  0  0  0  0  0  0
    0.8488    0.2175   -2.0643 H   0  0  0  0  0  0  0  0  0  0  0  0
   -0.3568    1.8625    1.7391 H   0  0  0  0  0  0  0  0  0  0  0  0
   -3.8022   -1.8946    0.0636 H   0  0  0  0  0  0  0  0  0  0  0  0
  1  2  1  0  0  0  0
  2  3  1  0  0  0  0
  2  4  1  0  0  0  0
  4  5  1  0  0  0  0
  4  6  1  0  0  0  0
  6  7  1  0  0  0  0
  6  8  1  0  0  0  0
  8  9  1  0  0  0  0
  8 10  1  0  0  0  0
 10 11  1  0  0  0  0
  2 12  1  0  0  0  0
 10 12  1  0  0  0  0
 10 13  1  0  0  0  0
  8 14  1  0  0  0  0
  6 15  1  0  0  0  0
  4 16  1  0  0  0  0
  1 17  1  0  0  0  0
  1 18  1  0  0  0  0
  1 19  1  0  0  0  0
 13 20  1  0  0  0  0
 14 21  1  0  0  0  0
 15 22  1  0  0  0  0
 16 23  1  0  0  0  0
 17 24  1  0  0  0  0
M  END
