 xtb: 6.7.1 (edcfbbe)
          04062518003D

 24 24  0     0  0            999 V2000
   -2.2260   -0.6133   -0.7033 C   0  0  0  0  0  0  0  0  0  0  0  0
   -1.3814   -0.4726    0.5807 C   0  0  0  0  0  0  0  0  0  0  0  0
   -2.0413   -0.7103    1.4269 H   0  0  0  0  0  0  0  0  0  0  0  0
   -0.8608    0.9524    0.8168 C   0  0  0  0  0  0  0  0  0  0  0  0
   -1.6745    1.6461    0.5618 H   0  0  0  0  0  0  0  0  0  0  0  0
    0.3458    1.3208   -0.0726 C   0  0  0  0  0  0  0  0  0  0  0  0
    1.0134    1.9714    0.5110 H   0  0  0  0  0  0  0  0  0  0  0  0
    1.1676    0.0838   -0.4596 C   0  0  0  0  0  0  0  0  0  0  0  0
    0.8027   -0.3225   -1.4162 H   0  0  0  0  0  0  0  0  0  0  0  0
    0.9693   -1.0103    0.6028 C   0  0  0  0  0  0  0  0  0  0  0  0
    1.2520   -0.6137    1.5974 H   0  0  0  0  0  0  0  0  0  0  0  0
   -0.3549   -1.4629    0.6097 O   0  0  0  0  0  0  0  0  0  0  0  0
    1.7863   -2.0970    0.3040 O   0  0  0  0  0  0  0  0  0  0  0  0
    2.5183    0.4606   -0.5636 O   0  0  0  0  0  0  0  0  0  0  0  0
   -0.1460    2.0149   -1.1964 O   0  0  0  0  0  0  0  0  0  0  0  0
   -0.5437    1.0501    2.1864 O   0  0  0  0  0  0  0  0  0  0  0  0
   -1.5702   -0.2883   -1.8994 O   0  0  0  0  0  0  0  0  0  0  0  0
   -3.1324   -0.0070   -0.5790 H   0  0  0  0  0  0  0  0  0  0  0  0
   -2.5104   -1.6634   -0.7989 H   0  0  0  0  0  0  0  0  0  0  0  0
    1.2284   -2.8873    0.2443 H   0  0  0  0  0  0  0  0  0  0  0  0
    3.0589   -0.3428   -0.6044 H   0  0  0  0  0  0  0  0  0  0  0  0
    0.5998    2.3110   -1.7385 H   0  0  0  0  0  0  0  0  0  0  0  0
   -0.4465    1.9794    2.4407 H   0  0  0  0  0  0  0  0  0  0  0  0
   -1.3129    0.6530   -1.8817 H   0  0  0  0  0  0  0  0  0  0  0  0
  1  2  1  0  0  0  0
  2  3  1  0  0  0  0
  2  4  1  0  0  0  0
  4  5  1  0  0  0  0
  4  6  1  0  0  0  0
  6  7  1  0  0  0  0
  6  8  1  0  0  0  0
  8  9  1  0  0  0  0
  8 10  1  0  0  0  0
 10 11  1  0  0  0  0
  2 12  1  0  0  0  0
 10 12  1  0  0  0  0
 10 13  1  0  0  0  0
  8 14  1  0  0  0  0
  6 15  1  0  0  0  0
  4 16  1  0  0  0  0
  1 17  1  0  0  0  0
  1 18  1  0  0  0  0
  1 19  1  0  0  0  0
 13 20  1  0  0  0  0
 14 21  1  0  0  0  0
 15 22  1  0  0  0  0
 16 23  1  0  0  0  0
 17 24  1  0  0  0  0
M  END
