25
CONF2
C 1.7286030506 1.4818680733 0.4502581081
C 0.4494018078 0.7801403698 0.9222348570
H 0.2470959222 1.1405529578 1.9336478235
C 0.4481714769 -0.7787770888 0.9238634478
H 0.2454538821 -1.1367991738 1.9360688643
C 1.7264431776 -1.4831581087 0.4534460100
O 2.7775461884 -1.2760401015 1.3765151251
S 3.7957764885 -0.0019038654 1.0401557901
O 4.7353648840 -0.0012496905 2.1248921384
O 2.7798963879 1.2749514857 1.3730727973
C -0.7713250577 -1.1161122504 0.0241866056
C -0.4364579063 -0.6718082407 -1.3874474101
C -0.4353312864 0.6693812552 -1.3888767695
C -0.7695529463 1.1173599851 0.0217465069
C -1.7620033334 0.0018429757 0.4205697902
Cl -3.2417073804 0.0018577858 -0.5560246532
Cl -2.2263872332 0.0039190919 2.1183441156
Cl -1.3613211486 2.7626523948 0.1663417063
Cl -0.0788676050 1.7378787702 -2.6488960803
Cl -0.0808000553 -1.7435851052 -2.6446684829
Cl -1.3657614729 -2.7601755368 0.1723886182
H 1.5438760642 2.5585946840 0.4183614175
H 2.0299367262 1.1432108333 -0.5443306772
H 1.5401723341 -2.5596682877 0.4232013257
H 2.0287790367 -1.1466007310 -0.5415276768
25
CONF1
C 1.5869860130 1.5182250812 1.3391101080
C 0.2484496528 0.7801914921 1.4375494002
H -0.2198980623 1.1369088126 2.3581433784
C 0.2474157533 -0.7787271225 1.4385317310
H -0.2199143858 -1.1338944563 2.3602487445
C 1.5850460042 -1.5184362969 1.3388470220
O 2.3060461898 -1.2544463118 0.1584638857
S 3.3987217116 -0.0008170705 0.1989259807
O 3.9317239961 -0.0012332924 1.5473746330
O 2.3079242452 1.2540853646 0.1586901962
C -0.7125333772 -1.1148851881 0.2623418421
C -0.0696267780 -0.6720810882 -1.0376046875
C -0.0678882773 0.6686153811 -1.0389327311
C -0.7098963600 1.1158339823 0.2599627191
C -1.7721029851 0.0018896098 0.4110633644
Cl -2.9780988010 0.0018048575 -0.8908999540
Cl -2.6304398594 0.0042971245 1.9439599745
Cl -1.3144547171 2.7612232417 0.2629607404
Cl 0.5062631905 1.7306691853 -2.2204867910
Cl 0.5015336888 -1.7381202367 -2.2169762975
Cl -1.3209999171 -2.7586576248 0.2694574268
H 2.2129954081 1.2555181648 2.2005859190
H 1.3936422452 2.5937323019 1.3559684773
H 2.2116133797 -1.2575415480 2.2004071929
H 1.3900700541 -2.5936767317 1.3547566704
25
CONF4
C 1.5788967303 1.6336113918 0.8425046403
C 0.2789277698 0.8825945739 1.1965041222
H -0.0803595780 1.2683704693 2.1523853641
C 0.3129201021 -0.6747431050 1.2799203617
H -0.0695846821 -0.9895147725 2.2533857393
C 1.6499944679 -1.4004381937 1.0926311603
O 2.4354792200 -0.8733874226 0.0519776721
S 3.6556629277 0.1473348124 0.5740262907
O 4.4504357516 -0.5671989880 1.5410653208
O 2.6959425328 1.1112357085 1.5251916289
C -0.7364882590 -1.0898023554 0.2115256378
C -0.2032114041 -0.6922235058 -1.1494293941
C -0.2603300584 0.6453393233 -1.2151160517
C -0.8084156355 1.1359794624 0.1130674188
C -1.8139487276 0.0010528642 0.4045776449
Cl -3.1266769484 -0.0924503174 -0.7846748841
Cl -2.5326095796 0.0495720143 2.0079843640
Cl -1.4606396183 2.7621996783 0.0990220077
Cl 0.2112441998 1.6691661542 -2.4780464340
Cl 0.3782545497 -1.7948977060 -2.2863976042
Cl -1.2910779309 -2.7487170195 0.3421320697
H 1.4690372774 2.6791235247 1.1386038874
H 1.7649683696 1.5860112582 -0.2330088399
H 2.2238779446 -1.3542395929 2.0251993016
H 1.4498564308 -2.4513011601 0.8643250929
