24
 xtb: 6.7.1 (edcfbbe)
C           -2.58104767762527       -0.87104453072653        0.36908342614532
C           -1.15232482339060       -0.42596343393233        0.61769973943037
H           -0.99972219258401       -0.35495670833554        1.70753746257779
C           -0.80361953413992        0.91461251463781       -0.02626601368523
H           -0.98132812281377        0.84823453594058       -1.11114177801442
C            0.66792403875292        1.24301501653472        0.21293436818372
H            0.83004971685679        1.38926430524316        1.28872532123341
C            1.54717204853411        0.09799527992928       -0.26922650311902
H            1.44942267842867       -0.00537188104919       -1.36359545331032
C            1.08637457198280       -1.21251518167560        0.37552664261415
H            1.22472074634154       -1.17307263463253        1.46635208756755
O           -0.29238555087586       -1.44256682958563        0.07074718386723
O            1.82188788636413       -2.31646928372965       -0.08245793313972
O            2.89597174912827        0.39236393635181        0.09391852814517
O            1.01705563784399        2.49084210885811       -0.39812005384414
O           -1.64689463764914        1.91056367464713        0.55702923817126
O           -2.91589673123887       -0.93896525238950       -1.02155203912095
H           -3.26483066701637       -0.15002730880080        0.82363373009764
H           -2.73470483178244       -1.84486263529561        0.85326532954121
H            1.82891416773872       -2.29514580666799       -1.05206837496511
H            3.45519885553918       -0.30229887587878       -0.27851317212974
H            0.91846464758729        2.38680877856640       -1.35578979541941
H           -1.33421594119098        2.76673420068554        0.23251591685876
H           -2.35054397057142       -1.61244535251741       -1.42231564135897
