17
 xtb: 6.7.1 (edcfbbe)
C           -2.79743216681505        0.73973601994035       -0.36613670398013
C           -1.94848750888600       -0.33142041945570        0.30606044799878
C           -0.45672797594020       -0.19088958613147        0.13167657314821
C            0.36844221326525       -1.30246601825231        0.34312594625320
C            1.74234987382400       -1.16818430478382        0.22193455930994
C            2.26604005113418        0.07764498897971       -0.11547799879006
C            1.37900205513224        1.12426117416162       -0.31483834660665
N            0.04615277776679        1.00909441421398       -0.19635613963493
H           -2.60162095842926        1.73177218340523        0.04739547090713
H           -3.85830686968074        0.51695070788729       -0.21851137093694
H           -2.60694807527735        0.77911603429992       -1.44327447147766
H           -2.23834012344760       -1.32411562089772       -0.05656529551177
H           -2.15741476872954       -0.34082393149932        1.38519435218153
H           -0.07610175175972       -2.25904594288424        0.60059508011868
H            2.39589403064093       -2.01970853102060        0.38361725415695
H            3.33364399611657        0.23350090484616       -0.22512727439275
H            1.75120498834967        2.11091875617243       -0.58454927121711
