 xtb: 6.7.1 (edcfbbe)
          04042519443D

 15 15  0     0  0            999 V2000
   -2.2257    0.9363    0.0422 C   0  0  0  0  0  0  0  0  0  0  0  0
   -0.8111    0.7474    0.0475 O   0  0  0  0  0  0  0  0  0  0  0  0
   -0.3607   -0.4954   -0.1209 C   0  0  0  0  0  0  0  0  0  0  0  0
   -1.1032   -1.4494   -0.2749 O   0  0  0  0  0  0  0  0  0  0  0  0
    1.1089   -0.5923   -0.1010 C   0  0  0  0  0  0  0  0  0  0  0  0
    1.9404    0.5363   -0.6697 C   0  0  0  0  0  0  0  0  0  0  0  0
    1.9068    0.3260    0.7983 C   0  0  0  0  0  0  0  0  0  0  0  0
   -2.6857    0.3431    0.8337 H   0  0  0  0  0  0  0  0  0  0  0  0
   -2.6410    0.6258   -0.9176 H   0  0  0  0  0  0  0  0  0  0  0  0
   -2.3792    1.9978    0.2093 H   0  0  0  0  0  0  0  0  0  0  0  0
    1.4530   -1.6082   -0.2388 H   0  0  0  0  0  0  0  0  0  0  0  0
    2.8256    0.2584   -1.2188 H   0  0  0  0  0  0  0  0  0  0  0  0
    1.4045    1.3797   -1.0750 H   0  0  0  0  0  0  0  0  0  0  0  0
    2.7682   -0.1006    1.2865 H   0  0  0  0  0  0  0  0  0  0  0  0
    1.3477    1.0251    1.3996 H   0  0  0  0  0  0  0  0  0  0  0  0
  1  2  1  0  0  0  0
  2  3  1  0  0  0  0
  3  4  2  0  0  0  0
  3  5  1  0  0  0  0
  5  6  1  0  0  0  0
  5  7  1  0  0  0  0
  6  7  1  0  0  0  0
  1  8  1  0  0  0  0
  1  9  1  0  0  0  0
  1 10  1  0  0  0  0
  5 11  1  0  0  0  0
  6 12  1  0  0  0  0
  6 13  1  0  0  0  0
  7 14  1  0  0  0  0
  7 15  1  0  0  0  0
M  END
