24
 xtb: 6.7.1 (edcfbbe)
C           -3.60325334219078       -1.04127585227165        0.17589670139465
C           -2.11361379409177       -1.32670682541862        0.02907344050477
C           -1.20131225741262       -0.12473241897217        0.09558684488667
C           -1.68914575276845        1.15401368516230        0.26996291875072
C           -0.83354052128946        2.27591044432077        0.33144630974070
C            0.52471152037549        2.12410191558993        0.21923478184650
C            1.08129216093501        0.83363638073804        0.03949172414210
C            0.21514361824009       -0.30655779021470       -0.02455240182528
C            0.80533438924599       -1.58340285669657       -0.20584680139252
C            2.16993968288643       -1.72812528904068       -0.31616511149300
C            3.01770599784533       -0.60330394852754       -0.25146828223727
C            2.48108103045565        0.65007887835411       -0.07769496325292
H           -4.16543499260801       -1.97698279018207        0.10678560925605
H           -3.96863225346145       -0.37458240312704       -0.61180575417701
H           -3.83533284650090       -0.58420146996172        1.14329666922465
H           -1.93946532327501       -1.84382654095312       -0.92398884896704
H           -1.80695023628209       -2.04023932693977        0.80534604514655
H           -2.75714257896793        1.31646466749608        0.36346966393219
H           -1.26398087380857        3.26313987394659        0.46926469915650
H            1.19007116381931        2.98152839026847        0.26574402954080
H            0.17462556042342       -2.46354324475982       -0.25889601809116
H            2.59837023452988       -2.71615405274835       -0.45384742333491
H            4.09209593826435       -0.73117422483339       -0.33949833722467
H            3.12425014649171        1.52446093156209       -0.02714508602820
