24
 xtb: 6.7.1 (edcfbbe)
C           -2.93665933221539       -0.00012124829838       -0.06101889322879
C           -1.46359429382891       -0.00017579639835        0.33615880126694
C           -0.74648614476012       -1.25312155655963       -0.17751758667477
C            0.73861981812444       -1.25209158093130        0.18539493147750
C            1.45591706097923        0.00031727339215       -0.33208244661944
C            0.73847545305907        1.25211600350669        0.18652279243388
C           -0.74652634376356        1.25305474065235       -0.17680648146383
C            2.95165055582801       -0.00011196620066        0.04217865583987
H           -3.45374282758678       -0.88551847761876        0.32558297112056
H           -3.45312229631374        0.88650503506320        0.32359685926464
H           -3.04062780369810       -0.00130736121803       -1.15300582428675
H           -1.39633767584531       -0.00041921077726        1.43513777886408
H           -1.23403252876783       -2.15145762890063        0.22218763225362
H           -0.85383068999026       -1.29347110392485       -1.27198828765818
H            0.84846919856280       -1.29011923814306        1.27961617739089
H            1.22790845804029       -2.15022739574007       -0.21294382407972
H            1.36119878960369        0.00091258173688       -1.42773272135416
H            0.84821924361634        1.28953418016087        1.28079091846388
H            1.22759837787447        2.15054456490994       -0.21131217341773
H           -1.23437585140763        2.15119452510457        0.22296210885601
H           -0.85341872782046        1.29373060756129       -1.27132930242545
H            3.59532248110652       -0.01299155638446       -0.84267364153733
H            3.21318526054164       -0.87520999550610        0.64707145578040
H            3.21918453306698        0.88743444510346        0.62588953499106
