24
 xtb: 6.7.1 (edcfbbe)
C           -2.58899726155309       -0.59710147590418       -0.35243826568876
C           -1.20845721907253       -0.27318095356562        0.18589622100013
H           -1.23614544626338       -0.24314370951115        1.28844670678687
C           -0.68738337316673        1.06534757724824       -0.34099417707190
H           -0.70628883511958        1.04690434533161       -1.44254798655312
C            0.74561311847700        1.28352455248677        0.12694437328584
H            0.73985242948140        1.40264569197375        1.22209269427052
C            1.62613002760498        0.09384482958776       -0.22678744895467
H            1.71243850919228        0.00555082911417       -1.32015922369856
C            0.98768258155117       -1.18410282226109        0.30840884786902
H            0.91610286042113       -1.15530509290321        1.40821155186771
O           -0.32529099880241       -1.31975328994309       -0.24814778021898
O            1.75485055029445       -2.27609870650436       -0.12363524388488
O            2.90670148566273        0.32151697249553        0.36742886914896
O            1.21121751456062        2.48866342682993       -0.49279475533685
O           -1.54136022658590        2.10033526140517        0.15501094700485
O           -3.11594715759486       -1.81318875427356        0.19268753021289
H           -2.52875537446743       -0.74274167839742       -1.43593877413777
H           -3.26106538254740        0.24468686144862       -0.15006751246282
H            1.55581242288278       -3.03302959362549        0.44370020168855
H            3.51644828040432       -0.33384780558832        0.00433496744973
H            2.04208668288451        2.73524248669707       -0.06595384510257
H           -1.14325075356296        2.94234893743963       -0.10596503839197
H           -3.28297208048201       -1.66051854593151        1.13200271488037
