24
CONF1
C 2.8641349957 -0.0007903890 1.2476863561
C 1.9740517465 1.2312915649 1.4196945860
H 2.1147229546 1.6753156439 2.4048289013
C 0.4999141812 0.7805905713 1.3048735762
H -0.0322346393 1.1737220648 2.1715642059
C 0.4995656013 -0.7809681872 1.3049998165
H -0.0326162360 -1.1737895069 2.1717343024
C 1.9734849263 -1.2324509930 1.4194328402
H 2.1140497856 -1.6769037985 2.4044123202
Cl 2.4890821117 -2.5180886321 0.2802510093
C -0.3846731151 -1.1200115841 0.0681149766
C -1.7803660440 -0.6675031150 0.4900362024
C -1.7799998815 0.6685893829 0.4900023553
C -0.3838726939 1.1201064406 0.0678604401
C -0.0638539584 -0.0001709349 -0.9457768849
Cl 1.5442996221 -0.0006709612 -1.6280527412
Cl -1.2050935015 0.0002299568 -2.3212118880
Cl -0.3874553145 2.7596996209 -0.5614831820
Cl -3.0079129793 1.7429610359 0.9295851536
Cl -3.0088387162 -1.7409173977 0.9303547407
Cl -0.3897377929 -2.7597868337 -0.5607642759
Cl 2.4905584694 2.5171160691 0.2810851677
H 3.6687648202 -0.0010113458 1.9784346854
H 3.3176473168 -0.0007307463 0.2592330675
24
CONF2
C 2.6440894492 -0.0006663519 2.0394990538
C 1.9235961472 1.2369153716 1.4984748386
H 1.9737704413 2.0658578638 2.2024199267
C 0.4654436602 0.7776408381 1.3207021558
H -0.0764862840 1.1600287873 2.1878344252
C 0.4649789496 -0.7778307340 1.3207748276
H -0.0772469737 -1.1597621334 2.1879242906
C 1.9228545145 -1.2379528294 1.4987120002
H 1.9724705541 -2.0667754297 2.2028536745
Cl 2.7359211092 -1.8946476989 0.0344787541
C -0.4055419262 -1.1198952808 0.0824049610
C -1.8011993324 -0.6689100790 0.5224224125
C -1.8008082107 0.6700502577 0.5223356821
C -0.4048724938 1.1201816731 0.0823410501
C -0.1417313791 0.0000132377 -0.9535461876
Cl 1.3640523263 -0.0004609220 -1.8388651755
Cl -1.4076530686 0.0004041821 -2.2347771154
Cl -0.3213972202 2.7667999187 -0.5126807836
Cl -3.0202642317 1.7454566624 0.9765473679
Cl -3.0212912314 -1.7435539558 0.9768815977
Cl -0.3231903721 -2.7665896444 -0.5125351466
Cl 2.7369144487 1.8928059805 0.0340096062
H 2.5577056636 -0.0005010868 3.1252212892
H 3.6983235357 -0.0009848329 1.7757195100
