24
CONF1
C 2.8923774881 -0.0009217697 1.1659797551
C 1.9965182441 1.1951191708 1.4629278125
H 2.0690317923 1.4491456809 2.5212965276
C 0.5077949985 0.7919254711 1.2436749626
H -0.0403960601 1.1735450903 2.1059132263
C 0.5073533562 -0.7925006573 1.2436874745
H -0.0410309236 -1.1735617692 2.1060080811
C 1.9958596710 -1.1964099061 1.4630667601
H 2.0683236039 -1.4504918442 2.5213793592
Cl 2.6108782495 -2.6879531849 0.6174959131
C -0.4052137009 -1.1289632158 0.0041526987
C -1.7880773510 -0.6668112301 0.4733948505
C -1.7876351995 0.6678510420 0.4732685328
C -0.4044173234 1.1291513604 0.0040362797
C -0.1273862317 -0.0000976864 -1.0294701975
Cl 1.5022162905 -0.0004490113 -1.7297040860
Cl -1.2881910426 0.0006036871 -2.4062811724
Cl -0.3941450417 2.7762909856 -0.6450060819
Cl -3.0004081173 1.7200693704 1.0465922727
Cl -3.0016194773 -1.7180830555 1.0466739528
Cl -0.3964930392 -2.7760005323 -0.6450021226
Cl 2.6116564310 2.6864525997 0.6171989876
H 3.7729718279 -0.0010995598 1.8118615478
H 3.2336961318 -0.0010421829 0.1338061714
