 xtb: 6.7.1 (edcfbbe)
          04042520213D

 15 14  0     0  0            999 V2000
    1.6889    0.3956    0.6280 C   0  0  0  0  0  0  0  0  0  0  0  0
    0.8958    0.3603   -0.6734 C   0  0  0  0  0  0  0  0  0  0  0  0
   -0.5674   -0.0598   -0.4840 C   0  0  0  0  0  0  0  0  0  0  0  0
   -1.0544   -0.0234   -1.4748 H   0  0  0  0  0  0  0  0  0  0  0  0
   -1.3293    0.8599    0.4696 C   0  0  0  0  0  0  0  0  0  0  0  0
   -0.5703   -1.4037   -0.0262 O   0  0  0  0  0  0  0  0  0  0  0  0
    2.7435    0.5501    0.4154 H   0  0  0  0  0  0  0  0  0  0  0  0
    1.5748   -0.5499    1.1520 H   0  0  0  0  0  0  0  0  0  0  0  0
    1.3480    1.2009    1.2726 H   0  0  0  0  0  0  0  0  0  0  0  0
    1.3556   -0.3626   -1.3502 H   0  0  0  0  0  0  0  0  0  0  0  0
    0.9162    1.3392   -1.1542 H   0  0  0  0  0  0  0  0  0  0  0  0
   -0.9546    0.7411    1.4824 H   0  0  0  0  0  0  0  0  0  0  0  0
   -1.2060    1.8941    0.1624 H   0  0  0  0  0  0  0  0  0  0  0  0
   -2.3904    0.6202    0.4607 H   0  0  0  0  0  0  0  0  0  0  0  0
   -1.4792   -1.6702    0.1637 H   0  0  0  0  0  0  0  0  0  0  0  0
  1  2  1  0  0  0  0
  2  3  1  0  0  0  0
  3  4  1  0  0  0  0
  3  5  1  0  0  0  0
  3  6  1  0  0  0  0
  1  7  1  0  0  0  0
  1  8  1  0  0  0  0
  1  9  1  0  0  0  0
  2 10  1  0  0  0  0
  2 11  1  0  0  0  0
  5 12  1  0  0  0  0
  5 13  1  0  0  0  0
  5 14  1  0  0  0  0
  6 15  1  0  0  0  0
M  END
