12
 xtb: 6.7.1 (edcfbbe)
C           -1.96225391834231       -0.23529258813217        0.50173953512549
C           -1.17454363829728       -0.10626842373180       -0.79662716284864
C            0.12235035894331        0.67949301256426       -0.65696950829390
S            1.40991212635548       -0.13519997691123        0.39905262378896
H           -1.41874990049864       -0.82566499851810        1.24654680838023
H           -2.16749848257701        0.75052126851744        0.93425627181246
H           -2.92138687222329       -0.73186749867583        0.32606845658583
H           -1.78619644775450        0.42174711902503       -1.54063236994032
H           -0.95840408403126       -1.09796865121071       -1.21031174281022
H            0.60885545929687        0.79553324264811       -1.63007249008658
H           -0.06352406552901        1.68061423666122       -0.25625784778798
H            0.77898037033349        0.01079705411982        1.57784544801291
