14
 xtb: 6.7.1 (edcfbbe)
C            2.44066722552989        0.03352978966133        0.00029871869773
C            0.94225210990965       -0.00832600600557       -0.00019478149101
C            0.24255811615333       -1.21710586893738       -0.00005469663296
C           -1.14549947768869       -1.20227257042742        0.00017724470899
C           -1.80134412449362        0.02370266263856        0.00017612668107
N           -1.15774443801112        1.19887859673139       -0.00013367403334
C            0.18345551391244        1.16223437972858       -0.00031048133030
H            2.80659781106761        1.06306000566034       -0.00772428930785
H            2.84389096070240       -0.46877523279816        0.88593607576199
H            2.84506959626251       -0.48335340972614       -0.87629009630726
H            0.78538186443653       -2.15851760758135       -0.00005799121475
H           -1.71545726879624       -2.12546036679783        0.00026630814819
H           -2.88827950830109        0.06477030513847        0.00028286731860
H            0.68983277968441        2.12646221609258       -0.00072121438891
