 xtb: 6.7.1 (edcfbbe)
          04062518003D

 24 24  0     0  0            999 V2000
   -2.5268   -0.9540    0.3387 C   0  0  0  0  0  0  0  0  0  0  0  0
   -1.1006   -0.4806    0.6366 C   0  0  0  0  0  0  0  0  0  0  0  0
   -0.9638   -0.4172    1.7305 H   0  0  0  0  0  0  0  0  0  0  0  0
   -0.8315    0.8982    0.0133 C   0  0  0  0  0  0  0  0  0  0  0  0
   -1.0602    0.8426   -1.0558 H   0  0  0  0  0  0  0  0  0  0  0  0
    0.6422    1.2751    0.2032 C   0  0  0  0  0  0  0  0  0  0  0  0
    0.8391    1.4208    1.2813 H   0  0  0  0  0  0  0  0  0  0  0  0
    1.5709    0.1607   -0.2923 C   0  0  0  0  0  0  0  0  0  0  0  0
    1.4886    0.0781   -1.3849 H   0  0  0  0  0  0  0  0  0  0  0  0
    1.1505   -1.1855    0.3142 C   0  0  0  0  0  0  0  0  0  0  0  0
    1.3669   -1.1509    1.4047 H   0  0  0  0  0  0  0  0  0  0  0  0
   -0.2171   -1.4529    0.1159 O   0  0  0  0  0  0  0  0  0  0  0  0
    1.8636   -2.1893   -0.3035 O   0  0  0  0  0  0  0  0  0  0  0  0
    2.8965    0.4045    0.0967 O   0  0  0  0  0  0  0  0  0  0  0  0
    0.9678    2.4530   -0.4958 O   0  0  0  0  0  0  0  0  0  0  0  0
   -1.6673    1.8989    0.5368 O   0  0  0  0  0  0  0  0  0  0  0  0
   -2.7398   -0.9291   -1.0519 O   0  0  0  0  0  0  0  0  0  0  0  0
   -3.2249   -0.2788    0.8488 H   0  0  0  0  0  0  0  0  0  0  0  0
   -2.6337   -1.9705    0.7335 H   0  0  0  0  0  0  0  0  0  0  0  0
    1.4710   -3.0482   -0.0779 H   0  0  0  0  0  0  0  0  0  0  0  0
    3.1750    1.2489   -0.2909 H   0  0  0  0  0  0  0  0  0  0  0  0
    0.2286    3.0757   -0.4146 H   0  0  0  0  0  0  0  0  0  0  0  0
   -1.5417    1.9647    1.4959 H   0  0  0  0  0  0  0  0  0  0  0  0
   -3.6139   -1.2954   -1.2452 H   0  0  0  0  0  0  0  0  0  0  0  0
  1  2  1  0  0  0  0
  2  3  1  0  0  0  0
  2  4  1  0  0  0  0
  4  5  1  0  0  0  0
  4  6  1  0  0  0  0
  6  7  1  0  0  0  0
  6  8  1  0  0  0  0
  8  9  1  0  0  0  0
  8 10  1  0  0  0  0
 10 11  1  0  0  0  0
  2 12  1  0  0  0  0
 10 12  1  0  0  0  0
 10 13  1  0  0  0  0
  8 14  1  0  0  0  0
  6 15  1  0  0  0  0
  4 16  1  0  0  0  0
  1 17  1  0  0  0  0
  1 18  1  0  0  0  0
  1 19  1  0  0  0  0
 13 20  1  0  0  0  0
 14 21  1  0  0  0  0
 15 22  1  0  0  0  0
 16 23  1  0  0  0  0
 17 24  1  0  0  0  0
M  END
