11
 xtb: 6.7.1 (edcfbbe)
C           -2.82877044547661       -0.24445291104917       -0.35821814704872
O           -1.40168920023010       -0.55170415280987       -0.45505301601911
C           -0.60071221497479        0.30561103057195        0.14299828709470
O           -0.90235311661088        1.30429486868656        0.75416318935181
C            0.88630193156622       -0.09947835471402        0.00084772877638
F            1.57656929079349        0.92175849846316       -0.54089167416132
F            1.39810555126612       -0.34254590520283        1.22392541466613
F            1.08150079873207       -1.18660813942556       -0.75775587553944
H           -3.32234513400577       -1.02075277455655       -0.93849520076991
H           -3.01586438038003        0.74335008503770       -0.78242952233559
H           -3.13390768573416       -0.28172691152024        0.68890339815415
