 xtb: 6.7.1 (edcfbbe)
          04042519493D

 14 13  0     0  0            999 V2000
   -2.2156   -0.0822   -0.6611 C   0  0  0  0  0  0  0  0  0  0  0  0
   -1.4096    0.2177    0.5936 C   0  0  0  0  0  0  0  0  0  0  0  0
   -0.1117    0.7376    0.2633 O   0  0  0  0  0  0  0  0  0  0  0  0
    0.8780   -0.1193    0.0375 C   0  0  0  0  0  0  0  0  0  0  0  0
    0.7552   -1.3239    0.1256 O   0  0  0  0  0  0  0  0  0  0  0  0
    2.1455    0.5894   -0.3346 C   0  0  0  0  0  0  0  0  0  0  0  0
   -3.2123   -0.4059   -0.3799 H   0  0  0  0  0  0  0  0  0  0  0  0
   -2.2877    0.8076   -1.2806 H   0  0  0  0  0  0  0  0  0  0  0  0
   -1.7354   -0.8742   -1.2316 H   0  0  0  0  0  0  0  0  0  0  0  0
   -1.2801   -0.6879    1.1942 H   0  0  0  0  0  0  0  0  0  0  0  0
   -1.8778    1.0031    1.1877 H   0  0  0  0  0  0  0  0  0  0  0  0
    2.0810    1.6354   -0.0554 H   0  0  0  0  0  0  0  0  0  0  0  0
    2.2803    0.5089   -1.4112 H   0  0  0  0  0  0  0  0  0  0  0  0
    2.9877    0.1034    0.1488 H   0  0  0  0  0  0  0  0  0  0  0  0
  1  2  1  0  0  0  0
  2  3  1  0  0  0  0
  3  4  1  0  0  0  0
  4  5  2  0  0  0  0
  4  6  1  0  0  0  0
  1  7  1  0  0  0  0
  1  8  1  0  0  0  0
  1  9  1  0  0  0  0
  2 10  1  0  0  0  0
  2 11  1  0  0  0  0
  6 12  1  0  0  0  0
  6 13  1  0  0  0  0
  6 14  1  0  0  0  0
M  END
