 xtb: 6.7.1 (edcfbbe)
          04062518003D

 24 24  0     0  0            999 V2000
   -2.5528   -0.6673   -0.3663 C   0  0  0  0  0  0  0  0  0  0  0  0
   -1.1823   -0.3033    0.2135 C   0  0  0  0  0  0  0  0  0  0  0  0
   -1.2500   -0.2916    1.3138 H   0  0  0  0  0  0  0  0  0  0  0  0
   -0.7182    1.0829   -0.2819 C   0  0  0  0  0  0  0  0  0  0  0  0
   -0.7261    1.0956   -1.3770 H   0  0  0  0  0  0  0  0  0  0  0  0
    0.7186    1.3355    0.2000 C   0  0  0  0  0  0  0  0  0  0  0  0
    0.7142    1.4075    1.3036 H   0  0  0  0  0  0  0  0  0  0  0  0
    1.6224    0.1593   -0.2138 C   0  0  0  0  0  0  0  0  0  0  0  0
    1.6568    0.1148   -1.3083 H   0  0  0  0  0  0  0  0  0  0  0  0
    1.0253   -1.1550    0.3251 C   0  0  0  0  0  0  0  0  0  0  0  0
    0.9936   -1.1161    1.4290 H   0  0  0  0  0  0  0  0  0  0  0  0
   -0.2786   -1.3198   -0.1867 O   0  0  0  0  0  0  0  0  0  0  0  0
    1.7713   -2.2676    0.0087 O   0  0  0  0  0  0  0  0  0  0  0  0
    2.9469    0.3710    0.2006 O   0  0  0  0  0  0  0  0  0  0  0  0
    1.1870    2.5427   -0.3446 O   0  0  0  0  0  0  0  0  0  0  0  0
   -1.6097    2.0900    0.1056 O   0  0  0  0  0  0  0  0  0  0  0  0
   -3.1144   -1.7906    0.2590 O   0  0  0  0  0  0  0  0  0  0  0  0
   -2.4404   -0.8323   -1.4443 H   0  0  0  0  0  0  0  0  0  0  0  0
   -3.2399    0.1635   -0.1991 H   0  0  0  0  0  0  0  0  0  0  0  0
    1.7372   -2.4311   -0.9469 H   0  0  0  0  0  0  0  0  0  0  0  0
    3.0485    0.1542    1.1387 H   0  0  0  0  0  0  0  0  0  0  0  0
    2.1565    2.5459   -0.2937 H   0  0  0  0  0  0  0  0  0  0  0  0
   -1.5044    2.2876    1.0479 H   0  0  0  0  0  0  0  0  0  0  0  0
   -2.5194   -2.5437    0.1308 H   0  0  0  0  0  0  0  0  0  0  0  0
  1  2  1  0  0  0  0
  2  3  1  0  0  0  0
  2  4  1  0  0  0  0
  4  5  1  0  0  0  0
  4  6  1  0  0  0  0
  6  7  1  0  0  0  0
  6  8  1  0  0  0  0
  8  9  1  0  0  0  0
  8 10  1  0  0  0  0
 10 11  1  0  0  0  0
  2 12  1  0  0  0  0
 10 12  1  0  0  0  0
 10 13  1  0  0  0  0
  8 14  1  0  0  0  0
  6 15  1  0  0  0  0
  4 16  1  0  0  0  0
  1 17  1  0  0  0  0
  1 18  1  0  0  0  0
  1 19  1  0  0  0  0
 13 20  1  0  0  0  0
 14 21  1  0  0  0  0
 15 22  1  0  0  0  0
 16 23  1  0  0  0  0
 17 24  1  0  0  0  0
M  END
