 xtb: 6.7.1 (edcfbbe)
          04062501213D

 23 22  0     0  0            999 V2000
   -2.4337   -0.5763   -0.4937 C   0  0  0  0  0  0  0  0  0  0  0  0
   -1.7557    0.2482    0.5955 C   0  0  0  0  0  0  0  0  0  0  0  0
   -0.4461    0.9315    0.1866 C   0  0  0  0  0  0  0  0  0  0  0  0
    0.8193    0.0706   -0.0132 C   0  0  0  0  0  0  0  0  0  0  0  0
    0.8018   -0.6788   -1.3481 C   0  0  0  0  0  0  0  0  0  0  0  0
    2.0194    1.0282   -0.0271 C   0  0  0  0  0  0  0  0  0  0  0  0
    1.0031   -0.9271    1.1321 C   0  0  0  0  0  0  0  0  0  0  0  0
   -3.4553   -0.8087   -0.1999 H   0  0  0  0  0  0  0  0  0  0  0  0
   -2.4648   -0.0222   -1.4290 H   0  0  0  0  0  0  0  0  0  0  0  0
   -1.9174   -1.5160   -0.6656 H   0  0  0  0  0  0  0  0  0  0  0  0
   -2.4446    1.0452    0.8896 H   0  0  0  0  0  0  0  0  0  0  0  0
   -1.5935   -0.3735    1.4765 H   0  0  0  0  0  0  0  0  0  0  0  0
   -0.2170    1.6584    0.9710 H   0  0  0  0  0  0  0  0  0  0  0  0
   -0.6236    1.4968   -0.7320 H   0  0  0  0  0  0  0  0  0  0  0  0
    1.7652   -1.1556   -1.5181 H   0  0  0  0  0  0  0  0  0  0  0  0
    0.0406   -1.4513   -1.3626 H   0  0  0  0  0  0  0  0  0  0  0  0
    0.6120    0.0075   -2.1703 H   0  0  0  0  0  0  0  0  0  0  0  0
    2.1137    1.5434    0.9263 H   0  0  0  0  0  0  0  0  0  0  0  0
    1.9022    1.7746   -0.8099 H   0  0  0  0  0  0  0  0  0  0  0  0
    2.9418    0.4820   -0.2114 H   0  0  0  0  0  0  0  0  0  0  0  0
    1.9698   -1.4185    1.0455 H   0  0  0  0  0  0  0  0  0  0  0  0
    0.9630   -0.4184    2.0928 H   0  0  0  0  0  0  0  0  0  0  0  0
    0.2335   -1.6940    1.1111 H   0  0  0  0  0  0  0  0  0  0  0  0
  1  2  1  0  0  0  0
  2  3  1  0  0  0  0
  3  4  1  0  0  0  0
  4  5  1  0  0  0  0
  4  6  1  0  0  0  0
  4  7  1  0  0  0  0
  1  8  1  0  0  0  0
  1  9  1  0  0  0  0
  1 10  1  0  0  0  0
  2 11  1  0  0  0  0
  2 12  1  0  0  0  0
  3 13  1  0  0  0  0
  3 14  1  0  0  0  0
  5 15  1  0  0  0  0
  5 16  1  0  0  0  0
  5 17  1  0  0  0  0
  6 18  1  0  0  0  0
  6 19  1  0  0  0  0
  6 20  1  0  0  0  0
  7 21  1  0  0  0  0
  7 22  1  0  0  0  0
  7 23  1  0  0  0  0
M  END
