 xtb: 6.7.1 (edcfbbe)
          04052500003D

 17 17  0     0  0            999 V2000
   -0.8205   -2.2884   -0.0001 C   0  0  0  0  0  0  0  0  0  0  0  0
    0.0703   -1.0860    0.0002 C   0  0  0  0  0  0  0  0  0  0  0  0
    1.4492   -1.2525    0.0002 C   0  0  0  0  0  0  0  0  0  0  0  0
    2.3116   -0.1692   -0.0000 C   0  0  0  0  0  0  0  0  0  0  0  0
    1.8100    1.1246   -0.0003 C   0  0  0  0  0  0  0  0  0  0  0  0
    0.4456    1.3157   -0.0002 C   0  0  0  0  0  0  0  0  0  0  0  0
   -0.4353    0.2273    0.0001 C   0  0  0  0  0  0  0  0  0  0  0  0
   -1.8643    0.5091    0.0008 C   0  0  0  0  0  0  0  0  0  0  0  0
   -2.3569    1.6230   -0.0007 O   0  0  0  0  0  0  0  0  0  0  0  0
   -1.4595   -2.2953    0.8807 H   0  0  0  0  0  0  0  0  0  0  0  0
   -1.4580   -2.2958   -0.8820 H   0  0  0  0  0  0  0  0  0  0  0  0
   -0.2238   -3.1962    0.0006 H   0  0  0  0  0  0  0  0  0  0  0  0
    1.8570   -2.2523    0.0004 H   0  0  0  0  0  0  0  0  0  0  0  0
    3.3781   -0.3339    0.0000 H   0  0  0  0  0  0  0  0  0  0  0  0
    2.4787    1.9708   -0.0005 H   0  0  0  0  0  0  0  0  0  0  0  0
    0.0172    2.3074   -0.0002 H   0  0  0  0  0  0  0  0  0  0  0  0
   -2.5275   -0.3710    0.0030 H   0  0  0  0  0  0  0  0  0  0  0  0
  1  2  1  0  0  0  0
  2  3  4  0  0  0  0
  3  4  4  0  0  0  0
  4  5  4  0  0  0  0
  5  6  4  0  0  0  0
  2  7  4  0  0  0  0
  6  7  4  0  0  0  0
  7  8  1  0  0  0  0
  8  9  2  0  0  0  0
  1 10  1  0  0  0  0
  1 11  1  0  0  0  0
  1 12  1  0  0  0  0
  3 13  1  0  0  0  0
  4 14  1  0  0  0  0
  5 15  1  0  0  0  0
  6 16  1  0  0  0  0
  8 17  1  0  0  0  0
M  END
