 xtb: 6.7.1 (edcfbbe)
          04032521483D

 11 10  0     0  0            999 V2000
   -2.7622    0.0962   -0.6545 C   0  0  0  0  0  0  0  0  0  0  0  0
   -1.3338   -0.0847   -0.7360 O   0  0  0  0  0  0  0  0  0  0  0  0
   -0.6302    0.1690    0.3237 C   0  0  0  0  0  0  0  0  0  0  0  0
   -1.0054    0.5451    1.4002 O   0  0  0  0  0  0  0  0  0  0  0  0
    0.8767   -0.0903    0.0164 C   0  0  0  0  0  0  0  0  0  0  0  0
    1.3174    0.6932   -0.9774 F   0  0  0  0  0  0  0  0  0  0  0  0
    1.6453    0.1446    1.0805 F   0  0  0  0  0  0  0  0  0  0  0  0
    1.0909   -1.3578   -0.3613 F   0  0  0  0  0  0  0  0  0  0  0  0
   -3.1672   -0.5328    0.1371 H   0  0  0  0  0  0  0  0  0  0  0  0
   -3.1408   -0.1979   -1.6279 H   0  0  0  0  0  0  0  0  0  0  0  0
   -2.9872    1.1401   -0.4400 H   0  0  0  0  0  0  0  0  0  0  0  0
  1  2  1  0  0  0  0
  2  3  4  0  0  0  0
  3  4  2  0  0  0  0
  3  5  1  0  0  0  0
  5  6  1  0  0  0  0
  5  7  1  0  0  0  0
  5  8  1  0  0  0  0
  1  9  1  0  0  0  0
  1 10  1  0  0  0  0
  1 11  1  0  0  0  0
M  END
