 xtb: 6.7.1 (edcfbbe)
          04062518003D

 24 24  0     0  0            999 V2000
   -2.2855   -0.9431    0.7598 C   0  0  0  0  0  0  0  0  0  0  0  0
   -0.8336   -0.4248    0.7739 C   0  0  0  0  0  0  0  0  0  0  0  0
   -0.5923   -0.0869    1.7946 H   0  0  0  0  0  0  0  0  0  0  0  0
   -0.6186    0.7377   -0.2056 C   0  0  0  0  0  0  0  0  0  0  0  0
   -0.6985    0.3588   -1.2302 H   0  0  0  0  0  0  0  0  0  0  0  0
    0.7974    1.2970   -0.0056 C   0  0  0  0  0  0  0  0  0  0  0  0
    0.8016    1.9275    0.9008 H   0  0  0  0  0  0  0  0  0  0  0  0
    1.8049    0.1634    0.2563 C   0  0  0  0  0  0  0  0  0  0  0  0
    2.6912    0.3704   -0.3576 H   0  0  0  0  0  0  0  0  0  0  0  0
    1.2377   -1.1983   -0.1833 C   0  0  0  0  0  0  0  0  0  0  0  0
    1.9276   -1.9994    0.1317 H   0  0  0  0  0  0  0  0  0  0  0  0
    0.0297   -1.5153    0.4582 O   0  0  0  0  0  0  0  0  0  0  0  0
    1.1138   -1.1859   -1.5710 O   0  0  0  0  0  0  0  0  0  0  0  0
    2.1036    0.1681    1.6289 O   0  0  0  0  0  0  0  0  0  0  0  0
    1.2364    2.0412   -1.1122 O   0  0  0  0  0  0  0  0  0  0  0  0
   -1.6024    1.7341   -0.0815 O   0  0  0  0  0  0  0  0  0  0  0  0
   -2.8669   -0.9980   -0.5165 O   0  0  0  0  0  0  0  0  0  0  0  0
   -2.8885   -0.3222    1.4312 H   0  0  0  0  0  0  0  0  0  0  0  0
   -2.2733   -1.9683    1.1342 H   0  0  0  0  0  0  0  0  0  0  0  0
    0.7699   -2.0402   -1.8763 H   0  0  0  0  0  0  0  0  0  0  0  0
    2.8416   -0.4302    1.8142 H   0  0  0  0  0  0  0  0  0  0  0  0
    0.5331    2.6521   -1.3803 H   0  0  0  0  0  0  0  0  0  0  0  0
   -1.5499    2.1409    0.7961 H   0  0  0  0  0  0  0  0  0  0  0  0
   -3.0073   -0.0932   -0.8335 H   0  0  0  0  0  0  0  0  0  0  0  0
  1  2  1  0  0  0  0
  2  3  1  0  0  0  0
  2  4  1  0  0  0  0
  4  5  1  0  0  0  0
  4  6  1  0  0  0  0
  6  7  1  0  0  0  0
  6  8  1  0  0  0  0
  8  9  1  0  0  0  0
  8 10  1  0  0  0  0
 10 11  1  0  0  0  0
  2 12  1  0  0  0  0
 10 12  1  0  0  0  0
 10 13  1  0  0  0  0
  8 14  1  0  0  0  0
  6 15  1  0  0  0  0
  4 16  1  0  0  0  0
  1 17  1  0  0  0  0
  1 18  1  0  0  0  0
  1 19  1  0  0  0  0
 13 20  1  0  0  0  0
 14 21  1  0  0  0  0
 15 22  1  0  0  0  0
 16 23  1  0  0  0  0
 17 24  1  0  0  0  0
M  END
