12
 xtb: 6.7.1 (edcfbbe)
C            0.23605203665467        1.37817143480863       -0.00030439233136
C            1.31153204962725        0.48489333079905       -0.00026857275973
C            1.07531055957020       -0.89327996402018       -0.00018591655800
C           -0.23607214673003       -1.37810240103885       -0.00015740529893
C           -1.31154953651805       -0.48481382843562       -0.00019244591996
C           -1.07531805139278        0.89335700647480       -0.00025438576839
Cl          -2.40419123980194        1.99709441513841       -0.00028355490362
Cl          -2.93189721587890       -1.08355067250310       -0.00013903842853
Cl          -0.52760254166980       -3.08082631515102       -0.00005049031740
Cl           2.40420237742748       -1.99702965073202       -0.00014050408272
Cl           2.93191303355886        1.08352375895002       -0.00029037155241
Cl           0.52755311765404        3.08087161147580       -0.00033437012242
