25
CONF1
C -2.4676447429 -0.7369827987 -1.2558526980
C -1.9718182125 0.0032267532 -0.0002333553
C -2.5799331061 1.4092641938 0.0016566449
C -2.4691075916 -0.7408612463 1.2524959651
C -0.4415112740 0.0331065211 0.0003920219
C 0.2810296773 -1.1698879757 0.0002971689
C 1.6694807027 -1.1954349753 0.0002685741
C 2.3792419898 0.0046166813 0.0002689442
C 1.6930914031 1.2139089216 0.0004190986
C 0.2981245624 1.2185252970 0.0004883068
O 3.7574358016 -0.0645407192 0.0001162563
H -2.1064012222 -1.7695583931 -1.2823935948
H -3.5631338929 -0.7624095616 -1.2689332528
H -2.1253242063 -0.2315924637 -2.1654879999
H -2.2872762520 1.9805466239 -0.8857325043
H -3.6717353776 1.3287166813 0.0014454572
H -2.2873657027 1.9780058684 0.8907111907
H -3.5646099031 -0.7661816852 1.2641611114
H -2.1081288878 -1.7735806324 1.2762476717
H -2.1278449354 -0.2383746988 2.1641334134
H -0.2481146867 -2.1180638996 0.0001700238
H 2.2085595396 -2.1377869588 0.0001992708
H 2.2462877008 2.1496002265 0.0004426786
H -0.2044735168 2.1788855020 0.0005772930
H 4.1135750003 0.8349107632 -0.0000540911
25
CONF2
C -2.5367221814 -1.3845094613 -0.4207086240
C -1.9717342404 -0.0225197513 0.0116704599
C -2.4346251812 1.0483452489 -0.9937745302
C -2.5537035824 0.3110294827 1.3935539460
C -0.4402278166 -0.0337269922 0.0333173566
C 0.2966869260 -0.8069018088 -0.8738410035
C 1.6871384349 -0.7846800101 -0.9024779305
C 2.3826615137 0.0287318195 -0.0119452153
C 1.6804093995 0.8152758998 0.8975520572
C 0.2881358883 0.7785356823 0.9105670753
O 3.7608191696 0.0154096156 -0.0730954784
H -2.1706673944 -2.1888136078 0.2267487840
H -3.6293634416 -1.3627015194 -0.3534527042
H -2.2802382798 -1.6306421236 -1.4549011608
H -2.0690505264 2.0392776967 -0.7031668607
H -2.0588997726 0.8264346899 -1.9985715901
H -3.5295635973 1.0841071902 -1.0360477898
H -2.3060110186 1.3265800714 1.7151214917
H -3.6455191729 0.2401621546 1.3539569694
H -2.1939786860 -0.3895066045 2.1551043070
H -0.2129286187 -1.4495346198 -1.5831865088
H 2.2364122901 -1.3967152745 -1.6112762941
H 2.2193179029 1.4515856489 1.5948381236
H -0.2262297626 1.4056743443 1.6301283964
H 4.1113660921 0.6202333137 0.5952382271
