 xtb: 6.7.1 (edcfbbe)
          04032521413D

 11 10  0     0  0            999 V2000
    0.9870    2.1109   -0.3805 C   0  0  0  0  0  0  0  0  0  0  0  0
    0.3427    0.8646    0.1985 C   0  0  0  0  0  0  0  0  0  0  0  0
    0.1016    0.9966    1.2549 H   0  0  0  0  0  0  0  0  0  0  0  0
   -0.8930    0.4649   -0.5840 C   0  0  0  0  0  0  0  0  0  0  0  0
   -1.7183   -0.9385    0.1742 Cl  0  0  0  0  0  0  0  0  0  0  0  0
    1.5334   -0.5017    0.1558 Cl  0  0  0  0  0  0  0  0  0  0  0  0
    0.2962    2.9449   -0.2972 H   0  0  0  0  0  0  0  0  0  0  0  0
    1.8939    2.3491    0.1665 H   0  0  0  0  0  0  0  0  0  0  0  0
    1.2387    1.9585   -1.4259 H   0  0  0  0  0  0  0  0  0  0  0  0
   -1.6132    1.2814   -0.5900 H   0  0  0  0  0  0  0  0  0  0  0  0
   -0.6408    0.1692   -1.6009 H   0  0  0  0  0  0  0  0  0  0  0  0
  1  2  1  0  0  0  0
  2  3  1  0  0  0  0
  2  4  1  0  0  0  0
  4  5  1  0  0  0  0
  2  6  1  0  0  0  0
  1  7  1  0  0  0  0
  1  8  1  0  0  0  0
  1  9  1  0  0  0  0
  4 10  1  0  0  0  0
  4 11  1  0  0  0  0
M  END
