 xtb: 6.7.1 (edcfbbe)
          04032521123D

 17 17  0     0  0            999 V2000
   -1.3683   -0.0340   -0.4244 C   0  0  0  0  0  0  0  0  0  0  0  0
   -0.7703    1.3017    0.0353 C   0  0  0  0  0  0  0  0  0  0  0  0
    0.7323    1.1341    0.3512 C   0  0  0  0  0  0  0  0  0  0  0  0
    1.3427    0.0259   -0.3609 N   0  0  0  0  0  0  0  0  0  0  0  0
    0.7743   -1.2469    0.0671 C   0  0  0  0  0  0  0  0  0  0  0  0
   -0.7397   -1.1815    0.3621 C   0  0  0  0  0  0  0  0  0  0  0  0
   -1.1770   -0.1845   -1.4900 H   0  0  0  0  0  0  0  0  0  0  0  0
   -2.4501   -0.0257   -0.2851 H   0  0  0  0  0  0  0  0  0  0  0  0
   -0.9105    2.0503   -0.7464 H   0  0  0  0  0  0  0  0  0  0  0  0
   -1.2890    1.6525    0.9283 H   0  0  0  0  0  0  0  0  0  0  0  0
    1.2792    2.0450    0.0988 H   0  0  0  0  0  0  0  0  0  0  0  0
    0.8753    0.9416    1.4178 H   0  0  0  0  0  0  0  0  0  0  0  0
    1.1842    0.1557   -1.3553 H   0  0  0  0  0  0  0  0  0  0  0  0
    0.9812   -1.9834   -0.7112 H   0  0  0  0  0  0  0  0  0  0  0  0
    1.3108   -1.5565    0.9708 H   0  0  0  0  0  0  0  0  0  0  0  0
   -1.2106   -2.1286    0.0980 H   0  0  0  0  0  0  0  0  0  0  0  0
   -0.9068   -1.0095    1.4268 H   0  0  0  0  0  0  0  0  0  0  0  0
  1  2  1  0  0  0  0
  2  3  1  0  0  0  0
  3  4  1  0  0  0  0
  4  5  1  0  0  0  0
  1  6  1  0  0  0  0
  5  6  1  0  0  0  0
  1  7  1  0  0  0  0
  1  8  1  0  0  0  0
  2  9  1  0  0  0  0
  2 10  1  0  0  0  0
  3 11  1  0  0  0  0
  3 12  1  0  0  0  0
  4 13  1  0  0  0  0
  5 14  1  0  0  0  0
  5 15  1  0  0  0  0
  6 16  1  0  0  0  0
  6 17  1  0  0  0  0
M  END
