 xtb: 6.7.1 (edcfbbe)
          04062518003D

 24 24  0     0  0            999 V2000
   -2.4880   -0.8104   -0.0616 C   0  0  0  0  0  0  0  0  0  0  0  0
   -1.1240   -0.5412    0.5882 C   0  0  0  0  0  0  0  0  0  0  0  0
   -1.1351   -0.8980    1.6321 H   0  0  0  0  0  0  0  0  0  0  0  0
   -0.7614    0.9637    0.5923 C   0  0  0  0  0  0  0  0  0  0  0  0
   -1.6437    1.5379    0.2816 H   0  0  0  0  0  0  0  0  0  0  0  0
    0.3790    1.2476   -0.4088 C   0  0  0  0  0  0  0  0  0  0  0  0
    0.6946    2.2924   -0.2696 H   0  0  0  0  0  0  0  0  0  0  0  0
    1.5976    0.3699   -0.0710 C   0  0  0  0  0  0  0  0  0  0  0  0
    2.2468    0.3203   -0.9511 H   0  0  0  0  0  0  0  0  0  0  0  0
    1.1482   -1.0760    0.2492 C   0  0  0  0  0  0  0  0  0  0  0  0
    1.2315   -1.2288    1.3485 H   0  0  0  0  0  0  0  0  0  0  0  0
   -0.1829   -1.3139   -0.1390 O   0  0  0  0  0  0  0  0  0  0  0  0
    1.9581   -1.9590   -0.4355 O   0  0  0  0  0  0  0  0  0  0  0  0
    2.3623    0.9216    0.9642 O   0  0  0  0  0  0  0  0  0  0  0  0
    0.0029    1.0072   -1.7368 O   0  0  0  0  0  0  0  0  0  0  0  0
   -0.3024    1.3913    1.8558 O   0  0  0  0  0  0  0  0  0  0  0  0
   -2.6031   -0.2086   -1.3233 O   0  0  0  0  0  0  0  0  0  0  0  0
   -3.2858   -0.3915    0.5541 H   0  0  0  0  0  0  0  0  0  0  0  0
   -2.6195   -1.8971   -0.1346 H   0  0  0  0  0  0  0  0  0  0  0  0
    1.5629   -2.8455   -0.4139 H   0  0  0  0  0  0  0  0  0  0  0  0
    1.7687    1.1554    1.6987 H   0  0  0  0  0  0  0  0  0  0  0  0
   -0.6591    1.6602   -2.0096 H   0  0  0  0  0  0  0  0  0  0  0  0
   -1.0458    1.5081    2.4638 H   0  0  0  0  0  0  0  0  0  0  0  0
   -1.8390   -0.4812   -1.8557 H   0  0  0  0  0  0  0  0  0  0  0  0
  1  2  1  0  0  0  0
  2  3  1  0  0  0  0
  2  4  1  0  0  0  0
  4  5  1  0  0  0  0
  4  6  1  0  0  0  0
  6  7  1  0  0  0  0
  6  8  1  0  0  0  0
  8  9  1  0  0  0  0
  8 10  1  0  0  0  0
 10 11  1  0  0  0  0
  2 12  1  0  0  0  0
 10 12  1  0  0  0  0
 10 13  1  0  0  0  0
  8 14  1  0  0  0  0
  6 15  1  0  0  0  0
  4 16  1  0  0  0  0
  1 17  1  0  0  0  0
  1 18  1  0  0  0  0
  1 19  1  0  0  0  0
 13 20  1  0  0  0  0
 14 21  1  0  0  0  0
 15 22  1  0  0  0  0
 16 23  1  0  0  0  0
 17 24  1  0  0  0  0
M  END
