 xtb: 6.7.1 (edcfbbe)
          04062518003D

 24 24  0     0  0            999 V2000
   -2.3436   -0.7793    0.7314 C   0  0  0  0  0  0  0  0  0  0  0  0
   -0.8781   -0.3226    0.7443 C   0  0  0  0  0  0  0  0  0  0  0  0
   -0.6214    0.0069    1.7614 H   0  0  0  0  0  0  0  0  0  0  0  0
   -0.6277    0.8375   -0.2229 C   0  0  0  0  0  0  0  0  0  0  0  0
   -0.7595    0.4767   -1.2521 H   0  0  0  0  0  0  0  0  0  0  0  0
    0.8237    1.3242   -0.0617 C   0  0  0  0  0  0  0  0  0  0  0  0
    0.8263    2.0388    0.7779 H   0  0  0  0  0  0  0  0  0  0  0  0
    1.7701    0.1590    0.3128 C   0  0  0  0  0  0  0  0  0  0  0  0
    2.7129    0.2788   -0.2393 H   0  0  0  0  0  0  0  0  0  0  0  0
    1.1906   -1.1889   -0.1340 C   0  0  0  0  0  0  0  0  0  0  0  0
    1.8323   -1.9921    0.2631 H   0  0  0  0  0  0  0  0  0  0  0  0
   -0.0826   -1.4530    0.3976 O   0  0  0  0  0  0  0  0  0  0  0  0
    1.1862   -1.1962   -1.5269 O   0  0  0  0  0  0  0  0  0  0  0  0
    1.9958    0.0736    1.6967 O   0  0  0  0  0  0  0  0  0  0  0  0
    1.1824    1.9647   -1.2595 O   0  0  0  0  0  0  0  0  0  0  0  0
   -1.5364    1.8678    0.0719 O   0  0  0  0  0  0  0  0  0  0  0  0
   -2.7259   -1.3387   -0.4974 O   0  0  0  0  0  0  0  0  0  0  0  0
   -2.9792    0.0917    0.8935 H   0  0  0  0  0  0  0  0  0  0  0  0
   -2.4887   -1.5003    1.5449 H   0  0  0  0  0  0  0  0  0  0  0  0
    0.9445   -2.0743   -1.8573 H   0  0  0  0  0  0  0  0  0  0  0  0
    2.5529    0.8100    1.9904 H   0  0  0  0  0  0  0  0  0  0  0  0
    2.0648    2.3555   -1.1864 H   0  0  0  0  0  0  0  0  0  0  0  0
   -1.4704    2.5454   -0.6162 H   0  0  0  0  0  0  0  0  0  0  0  0
   -2.1489   -2.0974   -0.6668 H   0  0  0  0  0  0  0  0  0  0  0  0
  1  2  1  0  0  0  0
  2  3  1  0  0  0  0
  2  4  1  0  0  0  0
  4  5  1  0  0  0  0
  4  6  1  0  0  0  0
  6  7  1  0  0  0  0
  6  8  1  0  0  0  0
  8  9  1  0  0  0  0
  8 10  1  0  0  0  0
 10 11  1  0  0  0  0
  2 12  1  0  0  0  0
 10 12  1  0  0  0  0
 10 13  1  0  0  0  0
  8 14  1  0  0  0  0
  6 15  1  0  0  0  0
  4 16  1  0  0  0  0
  1 17  1  0  0  0  0
  1 18  1  0  0  0  0
  1 19  1  0  0  0  0
 13 20  1  0  0  0  0
 14 21  1  0  0  0  0
 15 22  1  0  0  0  0
 16 23  1  0  0  0  0
 17 24  1  0  0  0  0
M  END
