 xtb: 6.7.1 (edcfbbe)
          04062518003D

 24 24  0     0  0            999 V2000
   -2.2661   -1.1159   -0.1162 C   0  0  0  0  0  0  0  0  0  0  0  0
   -0.8887   -0.5665    0.2565 C   0  0  0  0  0  0  0  0  0  0  0  0
   -0.7635   -0.6011    1.3482 H   0  0  0  0  0  0  0  0  0  0  0  0
   -0.7245    0.8944   -0.2024 C   0  0  0  0  0  0  0  0  0  0  0  0
   -1.1527    1.0014   -1.2120 H   0  0  0  0  0  0  0  0  0  0  0  0
    0.7671    1.2672   -0.3075 C   0  0  0  0  0  0  0  0  0  0  0  0
    0.8593    2.2782    0.1100 H   0  0  0  0  0  0  0  0  0  0  0  0
    1.6366    0.2893    0.5061 C   0  0  0  0  0  0  0  0  0  0  0  0
    2.6999    0.5106    0.3227 H   0  0  0  0  0  0  0  0  0  0  0  0
    1.4094   -1.1489   -0.0123 C   0  0  0  0  0  0  0  0  0  0  0  0
    1.7131   -1.8498    0.7820 H   0  0  0  0  0  0  0  0  0  0  0  0
    0.0673   -1.3982   -0.3739 O   0  0  0  0  0  0  0  0  0  0  0  0
    2.2044   -1.4267   -1.1091 O   0  0  0  0  0  0  0  0  0  0  0  0
    1.3609    0.3134    1.8818 O   0  0  0  0  0  0  0  0  0  0  0  0
    1.1487    1.2364   -1.6643 O   0  0  0  0  0  0  0  0  0  0  0  0
   -1.3323    1.7912    0.6912 O   0  0  0  0  0  0  0  0  0  0  0  0
   -3.2467   -0.2958    0.4764 O   0  0  0  0  0  0  0  0  0  0  0  0
   -2.3342   -2.1487    0.2425 H   0  0  0  0  0  0  0  0  0  0  0  0
   -2.3537   -1.1147   -1.2098 H   0  0  0  0  0  0  0  0  0  0  0  0
    1.8738   -0.9039   -1.8620 H   0  0  0  0  0  0  0  0  0  0  0  0
    1.4980    1.2073    2.2298 H   0  0  0  0  0  0  0  0  0  0  0  0
    1.9031    1.8247   -1.8091 H   0  0  0  0  0  0  0  0  0  0  0  0
   -2.2415    1.4864    0.8498 H   0  0  0  0  0  0  0  0  0  0  0  0
   -4.1245   -0.6536    0.2827 H   0  0  0  0  0  0  0  0  0  0  0  0
  1  2  1  0  0  0  0
  2  3  1  0  0  0  0
  2  4  1  0  0  0  0
  4  5  1  0  0  0  0
  4  6  1  0  0  0  0
  6  7  1  0  0  0  0
  6  8  1  0  0  0  0
  8  9  1  0  0  0  0
  8 10  1  0  0  0  0
 10 11  1  0  0  0  0
  2 12  1  0  0  0  0
 10 12  1  0  0  0  0
 10 13  1  0  0  0  0
  8 14  1  0  0  0  0
  6 15  1  0  0  0  0
  4 16  1  0  0  0  0
  1 17  1  0  0  0  0
  1 18  1  0  0  0  0
  1 19  1  0  0  0  0
 13 20  1  0  0  0  0
 14 21  1  0  0  0  0
 15 22  1  0  0  0  0
 16 23  1  0  0  0  0
 17 24  1  0  0  0  0
M  END
