 xtb: 6.7.1 (edcfbbe)
          04062519153D

 24 24  0     0  0            999 V2000
   -2.5188   -0.9912    0.3355 C   0  0  0  0  0  0  0  0  0  0  0  0
   -1.0760   -0.5157    0.5887 C   0  0  0  0  0  0  0  0  0  0  0  0
   -0.9208   -0.4563    1.6770 H   0  0  0  0  0  0  0  0  0  0  0  0
   -0.7985    0.8664   -0.0186 C   0  0  0  0  0  0  0  0  0  0  0  0
   -0.9378    0.8079   -1.1098 H   0  0  0  0  0  0  0  0  0  0  0  0
    0.6626    1.2528    0.2391 C   0  0  0  0  0  0  0  0  0  0  0  0
    0.8295    1.3441    1.3245 H   0  0  0  0  0  0  0  0  0  0  0  0
    1.5809    0.1542   -0.3016 C   0  0  0  0  0  0  0  0  0  0  0  0
    1.4692    0.1044   -1.3963 H   0  0  0  0  0  0  0  0  0  0  0  0
    1.1626   -1.2035    0.3024 C   0  0  0  0  0  0  0  0  0  0  0  0
    1.3505   -1.1708    1.3913 H   0  0  0  0  0  0  0  0  0  0  0  0
   -0.1893   -1.4743    0.0418 O   0  0  0  0  0  0  0  0  0  0  0  0
    1.9250   -2.2390   -0.2109 O   0  0  0  0  0  0  0  0  0  0  0  0
    2.9049    0.4750    0.0446 O   0  0  0  0  0  0  0  0  0  0  0  0
    0.8916    2.4902   -0.3891 O   0  0  0  0  0  0  0  0  0  0  0  0
   -1.6901    1.7911    0.5459 O   0  0  0  0  0  0  0  0  0  0  0  0
   -2.9816   -0.7636   -0.9687 O   0  0  0  0  0  0  0  0  0  0  0  0
   -3.1677   -0.5068    1.0708 H   0  0  0  0  0  0  0  0  0  0  0  0
   -2.5390   -2.0728    0.4826 H   0  0  0  0  0  0  0  0  0  0  0  0
    1.4805   -2.5945   -0.9969 H   0  0  0  0  0  0  0  0  0  0  0  0
    3.4738   -0.2872   -0.1420 H   0  0  0  0  0  0  0  0  0  0  0  0
    1.8341    2.7019   -0.3217 H   0  0  0  0  0  0  0  0  0  0  0  0
   -1.3963    2.6816    0.2979 H   0  0  0  0  0  0  0  0  0  0  0  0
   -3.2138    0.1709   -1.0623 H   0  0  0  0  0  0  0  0  0  0  0  0
  1  2  1  0  0  0  0
  2  3  1  0  0  0  0
  2  4  1  0  0  0  0
  4  5  1  0  0  0  0
  4  6  1  0  0  0  0
  6  7  1  0  0  0  0
  6  8  1  0  0  0  0
  8  9  1  0  0  0  0
  8 10  1  0  0  0  0
 10 11  1  0  0  0  0
  2 12  1  0  0  0  0
 10 12  1  0  0  0  0
 10 13  1  0  0  0  0
  8 14  1  0  0  0  0
  6 15  1  0  0  0  0
  4 16  1  0  0  0  0
  1 17  1  0  0  0  0
  1 18  1  0  0  0  0
  1 19  1  0  0  0  0
 13 20  1  0  0  0  0
 14 21  1  0  0  0  0
 15 22  1  0  0  0  0
 16 23  1  0  0  0  0
 17 24  1  0  0  0  0
M  END
