13
 xtb: 6.7.1 (edcfbbe)
C           -1.12131292567890       -1.37294309331243       -0.43918520515588
C           -0.70670019929269       -0.18078571914686        0.41580503745447
C           -1.56591390571698        1.04372924622182        0.20087645173490
N            0.75215228976421        0.11455530615606        0.06621653108076
O            0.99950491554051        0.99968303022481       -0.74274488087394
O            1.60720163942043       -0.59303816623011        0.58963013056873
H           -0.48047856921733       -2.23804383812139       -0.25384710114878
H           -2.14859774479750       -1.63687423995716       -0.17571972242287
H           -1.08974737369049       -1.11300795500858       -1.50129840542331
H           -0.66436735922218       -0.46600885103745        1.46985662640436
H           -2.57085199483210        0.81014006448579        0.56377921202121
H           -1.63416374395086        1.30389661195379       -0.85794625547095
H           -1.18946010350285        1.90283347216352        0.76213189709523
