 xtb: 6.7.1 (edcfbbe)
          04062518003D

 24 24  0     0  0            999 V2000
   -2.4201   -0.6932   -0.0106 C   0  0  0  0  0  0  0  0  0  0  0  0
   -0.9900   -0.2799    0.3587 C   0  0  0  0  0  0  0  0  0  0  0  0
   -0.9667    0.0576    1.4073 H   0  0  0  0  0  0  0  0  0  0  0  0
   -0.5029    0.8686   -0.5294 C   0  0  0  0  0  0  0  0  0  0  0  0
   -0.3880    0.5021   -1.5590 H   0  0  0  0  0  0  0  0  0  0  0  0
    0.8756    1.3386   -0.0365 C   0  0  0  0  0  0  0  0  0  0  0  0
    0.6997    1.9949    0.8314 H   0  0  0  0  0  0  0  0  0  0  0  0
    1.7351    0.1448    0.4448 C   0  0  0  0  0  0  0  0  0  0  0  0
    2.7478    0.2481    0.0324 H   0  0  0  0  0  0  0  0  0  0  0  0
    1.1940   -1.1869   -0.0948 C   0  0  0  0  0  0  0  0  0  0  0  0
    1.7443   -2.0064    0.3954 H   0  0  0  0  0  0  0  0  0  0  0  0
   -0.1475   -1.4206    0.2336 O   0  0  0  0  0  0  0  0  0  0  0  0
    1.4066   -1.2030   -1.4733 O   0  0  0  0  0  0  0  0  0  0  0  0
    1.7565    0.0386    1.8461 O   0  0  0  0  0  0  0  0  0  0  0  0
    1.4623    2.0576   -1.0919 O   0  0  0  0  0  0  0  0  0  0  0  0
   -1.4403    1.9134   -0.4732 O   0  0  0  0  0  0  0  0  0  0  0  0
   -2.9589   -1.6728    0.8372 O   0  0  0  0  0  0  0  0  0  0  0  0
   -2.4199   -1.1342   -1.0090 H   0  0  0  0  0  0  0  0  0  0  0  0
   -3.0389    0.2123   -0.0144 H   0  0  0  0  0  0  0  0  0  0  0  0
    1.1281   -2.0583   -1.8351 H   0  0  0  0  0  0  0  0  0  0  0  0
    2.3206    0.7284    2.2265 H   0  0  0  0  0  0  0  0  0  0  0  0
    2.3017    2.4505   -0.8132 H   0  0  0  0  0  0  0  0  0  0  0  0
   -1.1428    2.6239   -1.0612 H   0  0  0  0  0  0  0  0  0  0  0  0
   -2.9445   -1.3525    1.7502 H   0  0  0  0  0  0  0  0  0  0  0  0
  1  2  1  0  0  0  0
  2  3  1  0  0  0  0
  2  4  1  0  0  0  0
  4  5  1  0  0  0  0
  4  6  1  0  0  0  0
  6  7  1  0  0  0  0
  6  8  1  0  0  0  0
  8  9  1  0  0  0  0
  8 10  1  0  0  0  0
 10 11  1  0  0  0  0
  2 12  1  0  0  0  0
 10 12  1  0  0  0  0
 10 13  1  0  0  0  0
  8 14  1  0  0  0  0
  6 15  1  0  0  0  0
  4 16  1  0  0  0  0
  1 17  1  0  0  0  0
  1 18  1  0  0  0  0
  1 19  1  0  0  0  0
 13 20  1  0  0  0  0
 14 21  1  0  0  0  0
 15 22  1  0  0  0  0
 16 23  1  0  0  0  0
 17 24  1  0  0  0  0
M  END
