8
 xtb: 6.7.1 (edcfbbe)
C           -2.22426178391706        0.42279375676725       -0.00007754422426
C           -1.20653145779116       -0.68611553278801        0.00008074146491
Br           0.65768537219559        0.04137240140469        0.00012161037332
H           -2.13771922386913        1.05128085854086       -0.88969456753731
H           -3.22216095727631       -0.03295836799350       -0.00020189591536
H           -2.13794645899353        1.05131104951900        0.88954045823862
H           -1.25723435803919       -1.30849969041710       -0.89238630196620
H           -1.25733685010536       -1.30835312593070        0.89264549807745
