 xtb: 6.7.1 (edcfbbe)
          04062518003D

 24 24  0     0  0            999 V2000
   -2.5407   -0.9491    0.3048 C   0  0  0  0  0  0  0  0  0  0  0  0
   -1.1203   -0.4575    0.6206 C   0  0  0  0  0  0  0  0  0  0  0  0
   -1.0019   -0.3683    1.7117 H   0  0  0  0  0  0  0  0  0  0  0  0
   -0.8359    0.9204   -0.0120 C   0  0  0  0  0  0  0  0  0  0  0  0
   -1.0359    0.8583   -1.0894 H   0  0  0  0  0  0  0  0  0  0  0  0
    0.6442    1.2870    0.2029 C   0  0  0  0  0  0  0  0  0  0  0  0
    0.7980    1.4419    1.2782 H   0  0  0  0  0  0  0  0  0  0  0  0
    1.5551    0.1489   -0.2929 C   0  0  0  0  0  0  0  0  0  0  0  0
    1.4462    0.0221   -1.3761 H   0  0  0  0  0  0  0  0  0  0  0  0
    1.1270   -1.1766    0.3682 C   0  0  0  0  0  0  0  0  0  0  0  0
    1.2811   -1.0987    1.4671 H   0  0  0  0  0  0  0  0  0  0  0  0
   -0.2343   -1.4413    0.1178 O   0  0  0  0  0  0  0  0  0  0  0  0
    1.8675   -2.2049   -0.1720 O   0  0  0  0  0  0  0  0  0  0  0  0
    2.9111    0.4302   -0.0939 O   0  0  0  0  0  0  0  0  0  0  0  0
    0.9825    2.5161   -0.3793 O   0  0  0  0  0  0  0  0  0  0  0  0
   -1.6206    1.9181    0.5958 O   0  0  0  0  0  0  0  0  0  0  0  0
   -2.7989   -0.9875   -1.0742 O   0  0  0  0  0  0  0  0  0  0  0  0
   -3.2662   -0.2625    0.7422 H   0  0  0  0  0  0  0  0  0  0  0  0
   -2.6695   -1.9401    0.7546 H   0  0  0  0  0  0  0  0  0  0  0  0
    1.5066   -3.0584    0.1167 H   0  0  0  0  0  0  0  0  0  0  0  0
    3.0808    0.6286    0.8384 H   0  0  0  0  0  0  0  0  0  0  0  0
    0.9058    2.4611   -1.3429 H   0  0  0  0  0  0  0  0  0  0  0  0
   -2.4731    1.9879    0.1454 H   0  0  0  0  0  0  0  0  0  0  0  0
   -2.2007   -1.6313   -1.4799 H   0  0  0  0  0  0  0  0  0  0  0  0
  1  2  1  0  0  0  0
  2  3  1  0  0  0  0
  2  4  1  0  0  0  0
  4  5  1  0  0  0  0
  4  6  1  0  0  0  0
  6  7  1  0  0  0  0
  6  8  1  0  0  0  0
  8  9  1  0  0  0  0
  8 10  1  0  0  0  0
 10 11  1  0  0  0  0
  2 12  1  0  0  0  0
 10 12  1  0  0  0  0
 10 13  1  0  0  0  0
  8 14  1  0  0  0  0
  6 15  1  0  0  0  0
  4 16  1  0  0  0  0
  1 17  1  0  0  0  0
  1 18  1  0  0  0  0
  1 19  1  0  0  0  0
 13 20  1  0  0  0  0
 14 21  1  0  0  0  0
 15 22  1  0  0  0  0
 16 23  1  0  0  0  0
 17 24  1  0  0  0  0
M  END
