 xtb: 6.7.1 (edcfbbe)
          04062518003D

 24 24  0     0  0            999 V2000
   -2.2165   -0.6535   -0.8893 C   0  0  0  0  0  0  0  0  0  0  0  0
   -1.1606   -0.6108    0.2275 C   0  0  0  0  0  0  0  0  0  0  0  0
   -1.5636   -1.0498    1.1559 H   0  0  0  0  0  0  0  0  0  0  0  0
   -0.7542    0.8337    0.5690 C   0  0  0  0  0  0  0  0  0  0  0  0
   -1.6227    1.4731    0.3479 H   0  0  0  0  0  0  0  0  0  0  0  0
    0.4413    1.3024   -0.2860 C   0  0  0  0  0  0  0  0  0  0  0  0
    0.8183    2.2504    0.1267 H   0  0  0  0  0  0  0  0  0  0  0  0
    1.6166    0.3106   -0.2107 C   0  0  0  0  0  0  0  0  0  0  0  0
    1.9682    0.1521   -1.2420 H   0  0  0  0  0  0  0  0  0  0  0  0
    1.1571   -1.0486    0.3589 C   0  0  0  0  0  0  0  0  0  0  0  0
    1.0688   -0.9684    1.4541 H   0  0  0  0  0  0  0  0  0  0  0  0
   -0.0758   -1.4068   -0.2180 O   0  0  0  0  0  0  0  0  0  0  0  0
    2.0726   -2.0542    0.1021 O   0  0  0  0  0  0  0  0  0  0  0  0
    2.6290    0.8804    0.5797 O   0  0  0  0  0  0  0  0  0  0  0  0
    0.0845    1.4561   -1.6376 O   0  0  0  0  0  0  0  0  0  0  0  0
   -0.4591    0.8781    1.9469 O   0  0  0  0  0  0  0  0  0  0  0  0
   -3.3827    0.0548   -0.5646 O   0  0  0  0  0  0  0  0  0  0  0  0
   -2.4267   -1.7032   -1.1196 H   0  0  0  0  0  0  0  0  0  0  0  0
   -1.7956   -0.1803   -1.7786 H   0  0  0  0  0  0  0  0  0  0  0  0
    1.9527   -2.3626   -0.8100 H   0  0  0  0  0  0  0  0  0  0  0  0
    3.3440    0.2365    0.6914 H   0  0  0  0  0  0  0  0  0  0  0  0
   -0.4982    2.2230   -1.7361 H   0  0  0  0  0  0  0  0  0  0  0  0
   -0.2509    1.7853    2.2130 H   0  0  0  0  0  0  0  0  0  0  0  0
   -3.8627   -0.4104    0.1354 H   0  0  0  0  0  0  0  0  0  0  0  0
  1  2  1  0  0  0  0
  2  3  1  0  0  0  0
  2  4  1  0  0  0  0
  4  5  1  0  0  0  0
  4  6  1  0  0  0  0
  6  7  1  0  0  0  0
  6  8  1  0  0  0  0
  8  9  1  0  0  0  0
  8 10  1  0  0  0  0
 10 11  1  0  0  0  0
  2 12  1  0  0  0  0
 10 12  1  0  0  0  0
 10 13  1  0  0  0  0
  8 14  1  0  0  0  0
  6 15  1  0  0  0  0
  4 16  1  0  0  0  0
  1 17  1  0  0  0  0
  1 18  1  0  0  0  0
  1 19  1  0  0  0  0
 13 20  1  0  0  0  0
 14 21  1  0  0  0  0
 15 22  1  0  0  0  0
 16 23  1  0  0  0  0
 17 24  1  0  0  0  0
M  END
