 xtb: 6.7.1 (edcfbbe)
          04042519163D

 15 16  0     0  0            999 V2000
    0.0356   -1.2147   -0.0001 C   0  0  0  0  0  0  0  0  0  0  0  0
    1.4071   -1.2118   -0.0000 C   0  0  0  0  0  0  0  0  0  0  0  0
    2.1131    0.0012   -0.0000 C   0  0  0  0  0  0  0  0  0  0  0  0
    1.4087    1.2124   -0.0000 C   0  0  0  0  0  0  0  0  0  0  0  0
    0.0347    1.2129   -0.0001 C   0  0  0  0  0  0  0  0  0  0  0  0
   -0.6587   -0.0001   -0.0002 C   0  0  0  0  0  0  0  0  0  0  0  0
   -2.0663    0.0008   -0.0004 N   0  0  0  0  0  0  0  0  0  0  0  0
   -2.6593   -1.0736    0.0003 O   0  0  0  0  0  0  0  0  0  0  0  0
   -2.6575    1.0766    0.0003 O   0  0  0  0  0  0  0  0  0  0  0  0
    3.4442   -0.0565    0.0002 O   0  0  0  0  0  0  0  0  0  0  0  0
   -0.5245   -2.1364   -0.0001 H   0  0  0  0  0  0  0  0  0  0  0  0
    1.9684   -2.1314    0.0002 H   0  0  0  0  0  0  0  0  0  0  0  0
    1.9435    2.1492   -0.0000 H   0  0  0  0  0  0  0  0  0  0  0  0
   -0.5264    2.1342    0.0001 H   0  0  0  0  0  0  0  0  0  0  0  0
    3.8552    0.8249    0.0001 H   0  0  0  0  0  0  0  0  0  0  0  0
  1  2  2  0  0  0  0
  2  3  4  0  0  0  0
  3  4  4  0  0  0  0
  4  5  2  0  0  0  0
  1  6  4  0  0  0  0
  5  6  4  0  0  0  0
  6  7  1  0  0  0  0
  7  8  4  0  0  0  0
  7  9  4  0  0  0  0
  8  9  1  0  0  0  0
  3 10  1  0  0  0  0
  1 11  1  0  0  0  0
  2 12  1  0  0  0  0
  4 13  1  0  0  0  0
  5 14  1  0  0  0  0
 10 15  1  0  0  0  0
M  END
