24
 xtb: 6.7.1 (edcfbbe)
C            3.64804417885930        0.71056581651294       -0.00042155811690
C            3.64803502271534       -0.71060072547682       -0.00021985766051
C            2.46897923773707       -1.40582800163654        0.00011386845672
C            1.21918487388423       -0.72159396521929        0.00018825816057
C           -0.00001547605220       -1.40514803420175        0.00020579855573
C           -1.21920933254066       -0.72157206581752        0.00008069359098
C           -2.46901129718812       -1.40578288847744       -0.00023514220156
C           -3.64805912822334       -0.71053433582906       -0.00044314548598
C           -3.64804384271619        0.71062693562859       -0.00025391609975
C           -2.46897852521221        1.40584298044132        0.00006495040315
C           -1.21919654789734        0.72159965768021        0.00016121560379
C            0.00000824114450        1.40515253003362        0.00019392573672
C            1.21919649723125        0.72157956289236        0.00009578835903
C            2.46899569332163        1.40580236157722       -0.00021345660133
H            4.59422149981390        1.24260444792072       -0.00076882342285
H            4.59420573581368       -1.24265118052560       -0.00033161784200
H            2.46487390352862       -2.49224975228831        0.00027345912594
H           -0.00002898917700       -2.49239647070232        0.00021922340513
H           -2.46493744348220       -2.49220506205878       -0.00037024394438
H           -4.59423353525225       -1.24257892680059       -0.00076996449554
H           -4.59420463903652        1.24269480156387       -0.00037249025905
H           -2.46486468330440        2.49226399211874        0.00020525089622
H            0.00001204589186        2.49240022886174        0.00020049753608
H            2.46489318667705        2.49222384183954       -0.00035722993277
