16
 xtb: 6.7.1 (edcfbbe)
C           -1.42351697416272       -1.22042767601997       -0.00007388619305
C           -0.05033169053209       -1.21937361509053       -0.00002885773288
C            0.64382366952502       -0.00001072687137        0.00013760333420
C           -0.05032804545739        1.21935366946730        0.00002799085402
C           -1.42350868746335        1.22041940140175       -0.00001461414931
C           -2.14411161848470       -0.00000068513765       -0.00004600531816
N           -3.48986538177809        0.00000735128127       -0.00004543004432
N            2.06722655966494        0.00002130105979        0.00044559157797
O            2.67267030135923        1.08754883594444       -0.00027435510386
O            2.67272644687292       -1.08752281324707       -0.00027763951679
H           -1.96998635229117       -2.15808479126905       -0.00008308570137
H            0.49629625300916       -2.15406433184708       -0.00002044552323
H            0.49629784066901        2.15403628503618        0.00008260551313
H           -1.96996894868389        2.15807982629286        0.00002552231775
H           -4.00267889512535       -0.86718106006690       -0.00006691994959
H           -4.00266805641937        0.86720202773796       -0.00002711085523
