 xtb: 6.7.1 (edcfbbe)
          04032521463D

 22 24  0     0  0            999 V2000
    4.8156    0.1204    0.0003 C   0  0  0  0  0  0  0  0  0  0  0  0
    4.5282    1.4734    0.0012 C   0  0  0  0  0  0  0  0  0  0  0  0
    3.2111    1.9069    0.0009 C   0  0  0  0  0  0  0  0  0  0  0  0
    2.1847    0.9795    0.0000 C   0  0  0  0  0  0  0  0  0  0  0  0
    2.4738   -0.3819   -0.0004 C   0  0  0  0  0  0  0  0  0  0  0  0
    3.7890   -0.8114   -0.0004 C   0  0  0  0  0  0  0  0  0  0  0  0
    1.4735   -1.3398   -0.0009 O   0  0  0  0  0  0  0  0  0  0  0  0
    0.1953   -0.8682   -0.0004 C   0  0  0  0  0  0  0  0  0  0  0  0
   -0.8530   -1.7823    0.0000 C   0  0  0  0  0  0  0  0  0  0  0  0
   -2.1754   -1.3630    0.0003 C   0  0  0  0  0  0  0  0  0  0  0  0
   -2.4542   -0.0089    0.0001 C   0  0  0  0  0  0  0  0  0  0  0  0
   -1.4200    0.9254   -0.0003 C   0  0  0  0  0  0  0  0  0  0  0  0
   -0.0952    0.5004   -0.0004 C   0  0  0  0  0  0  0  0  0  0  0  0
    0.8799    1.4492   -0.0005 O   0  0  0  0  0  0  0  0  0  0  0  0
   -1.7422    2.6181   -0.0006 Cl  0  0  0  0  0  0  0  0  0  0  0  0
   -4.0866    0.5326    0.0007 Cl  0  0  0  0  0  0  0  0  0  0  0  0
   -0.4741   -3.4617    0.0001 Cl  0  0  0  0  0  0  0  0  0  0  0  0
    5.8383   -0.2186    0.0000 H   0  0  0  0  0  0  0  0  0  0  0  0
    5.3244    2.1992    0.0014 H   0  0  0  0  0  0  0  0  0  0  0  0
    2.9576    2.9539    0.0011 H   0  0  0  0  0  0  0  0  0  0  0  0
    3.9832   -1.8711   -0.0011 H   0  0  0  0  0  0  0  0  0  0  0  0
   -2.9730   -2.0859    0.0009 H   0  0  0  0  0  0  0  0  0  0  0  0
  1  2  4  0  0  0  0
  2  3  4  0  0  0  0
  3  4  4  0  0  0  0
  4  5  4  0  0  0  0
  1  6  4  0  0  0  0
  5  6  4  0  0  0  0
  5  7  1  0  0  0  0
  7  8  1  0  0  0  0
  8  9  4  0  0  0  0
  9 10  4  0  0  0  0
 10 11  4  0  0  0  0
 11 12  4  0  0  0  0
  8 13  4  0  0  0  0
 12 13  4  0  0  0  0
  4 14  1  0  0  0  0
 13 14  1  0  0  0  0
 12 15  1  0  0  0  0
 11 16  1  0  0  0  0
  9 17  1  0  0  0  0
  1 18  1  0  0  0  0
  2 19  1  0  0  0  0
  3 20  1  0  0  0  0
  6 21  1  0  0  0  0
 10 22  1  0  0  0  0
M  END
