 xtb: 6.7.1 (edcfbbe)
          04062518003D

 24 24  0     0  0            999 V2000
   -2.5460   -0.7021   -0.3453 C   0  0  0  0  0  0  0  0  0  0  0  0
   -1.1632   -0.3369    0.2144 C   0  0  0  0  0  0  0  0  0  0  0  0
   -1.1942   -0.3212    1.3175 H   0  0  0  0  0  0  0  0  0  0  0  0
   -0.7176    1.0469   -0.2945 C   0  0  0  0  0  0  0  0  0  0  0  0
   -0.7437    1.0469   -1.3896 H   0  0  0  0  0  0  0  0  0  0  0  0
    0.7195    1.3299    0.1673 C   0  0  0  0  0  0  0  0  0  0  0  0
    0.7334    1.4314    1.2669 H   0  0  0  0  0  0  0  0  0  0  0  0
    1.6534    0.1730   -0.2116 C   0  0  0  0  0  0  0  0  0  0  0  0
    1.7292    0.1317   -1.3090 H   0  0  0  0  0  0  0  0  0  0  0  0
    1.0625   -1.1586    0.2957 C   0  0  0  0  0  0  0  0  0  0  0  0
    1.0627   -1.1431    1.3982 H   0  0  0  0  0  0  0  0  0  0  0  0
   -0.2459   -1.3282   -0.2048 O   0  0  0  0  0  0  0  0  0  0  0  0
    1.8050   -2.2575   -0.0668 O   0  0  0  0  0  0  0  0  0  0  0  0
    2.9205    0.3312    0.3678 O   0  0  0  0  0  0  0  0  0  0  0  0
    1.2297    2.5025   -0.4222 O   0  0  0  0  0  0  0  0  0  0  0  0
   -1.5845    2.0771    0.1033 O   0  0  0  0  0  0  0  0  0  0  0  0
   -3.1638   -1.7711    0.3186 O   0  0  0  0  0  0  0  0  0  0  0  0
   -2.4192   -1.0283   -1.3789 H   0  0  0  0  0  0  0  0  0  0  0  0
   -3.1752    0.1962   -0.3242 H   0  0  0  0  0  0  0  0  0  0  0  0
    1.7387   -2.3965   -1.0250 H   0  0  0  0  0  0  0  0  0  0  0  0
    3.2746    1.1924    0.0957 H   0  0  0  0  0  0  0  0  0  0  0  0
    0.5426    3.1864   -0.4061 H   0  0  0  0  0  0  0  0  0  0  0  0
   -1.6362    2.1126    1.0708 H   0  0  0  0  0  0  0  0  0  0  0  0
   -3.3553   -1.5256    1.2351 H   0  0  0  0  0  0  0  0  0  0  0  0
  1  2  1  0  0  0  0
  2  3  1  0  0  0  0
  2  4  1  0  0  0  0
  4  5  1  0  0  0  0
  4  6  1  0  0  0  0
  6  7  1  0  0  0  0
  6  8  1  0  0  0  0
  8  9  1  0  0  0  0
  8 10  1  0  0  0  0
 10 11  1  0  0  0  0
  2 12  1  0  0  0  0
 10 12  1  0  0  0  0
 10 13  1  0  0  0  0
  8 14  1  0  0  0  0
  6 15  1  0  0  0  0
  4 16  1  0  0  0  0
  1 17  1  0  0  0  0
  1 18  1  0  0  0  0
  1 19  1  0  0  0  0
 13 20  1  0  0  0  0
 14 21  1  0  0  0  0
 15 22  1  0  0  0  0
 16 23  1  0  0  0  0
 17 24  1  0  0  0  0
M  END
