16
 xtb: 6.7.1 (edcfbbe)
C            2.48686262561584        0.75537236468074       -0.91911529012945
C            1.70294115784040       -0.13071655219262       -0.00023265982811
O            2.26395230092240       -0.91825572145303        0.76006530120317
C            0.21583037820477       -0.04579314776696       -0.02551428659082
C           -0.47464659409312        0.91689049674619       -0.76644172809691
C           -1.86136065547954        0.92427410442058       -0.72439838781409
C           -2.51058424577686       -0.03104916741724        0.04711063982862
N           -1.86992100824379       -0.97129634835380        0.76168927565594
C           -0.53558719080951       -0.96315091643282        0.71741977018693
H            3.55135243912660        0.54545669855181       -0.81317050697341
H            2.29523604670373        1.80719186086384       -0.68076823466753
H            2.17640826437391        0.60160072470874       -1.95789385027733
H            0.05548171772647        1.65279681124487       -1.36056907675355
H           -2.43461623141363        1.65781008663172       -1.28008865725180
H           -3.59677445131149       -0.04697331295129        0.09560150875193
H           -0.02515247771396       -1.72884702474749        1.29541420788068
