 xtb: 6.7.1 (edcfbbe)
          04042518423D

 15 15  0     0  0            999 V2000
   -3.3597   -0.0024   -0.5252 C   0  0  0  0  0  0  0  0  0  0  0  0
   -2.7229   -1.2004   -0.2457 C   0  0  0  0  0  0  0  0  0  0  0  0
   -1.4563   -1.1993    0.3100 C   0  0  0  0  0  0  0  0  0  0  0  0
   -0.8171    0.0022    0.5966 C   0  0  0  0  0  0  0  0  0  0  0  0
   -1.4588    1.2012    0.3059 C   0  0  0  0  0  0  0  0  0  0  0  0
   -2.7254    1.1978   -0.2498 C   0  0  0  0  0  0  0  0  0  0  0  0
    0.5481    0.0046    1.1890 C   0  0  0  0  0  0  0  0  0  0  0  0
    1.9437   -0.0007   -0.2415 Br  0  0  0  0  0  0  0  0  0  0  0  0
   -4.3471   -0.0042   -0.9602 H   0  0  0  0  0  0  0  0  0  0  0  0
   -3.2119   -2.1376   -0.4620 H   0  0  0  0  0  0  0  0  0  0  0  0
   -0.9578   -2.1338    0.5229 H   0  0  0  0  0  0  0  0  0  0  0  0
   -0.9622    2.1375    0.5154 H   0  0  0  0  0  0  0  0  0  0  0  0
   -3.2164    2.1333   -0.4691 H   0  0  0  0  0  0  0  0  0  0  0  0
    0.7530   -0.8896    1.7733 H   0  0  0  0  0  0  0  0  0  0  0  0
    0.7524    0.9028    1.7673 H   0  0  0  0  0  0  0  0  0  0  0  0
  1  2  4  0  0  0  0
  2  3  4  0  0  0  0
  3  4  4  0  0  0  0
  4  5  4  0  0  0  0
  1  6  4  0  0  0  0
  5  6  4  0  0  0  0
  4  7  1  0  0  0  0
  7  8  1  0  0  0  0
  1  9  1  0  0  0  0
  2 10  1  0  0  0  0
  3 11  1  0  0  0  0
  5 12  1  0  0  0  0
  6 13  1  0  0  0  0
  7 14  1  0  0  0  0
  7 15  1  0  0  0  0
M  END
