 xtb: 6.7.1 (edcfbbe)
          04042519283D

 15 15  0     0  0            999 V2000
   -2.2251    0.9537    0.0002 C   0  0  0  0  0  0  0  0  0  0  0  0
   -0.8141    0.7283    0.0007 O   0  0  0  0  0  0  0  0  0  0  0  0
   -0.3621   -0.5238   -0.0004 C   0  0  0  0  0  0  0  0  0  0  0  0
   -1.0901   -1.5015   -0.0008 O   0  0  0  0  0  0  0  0  0  0  0  0
    1.1094   -0.6055    0.0003 C   0  0  0  0  0  0  0  0  0  0  0  0
    1.9196    0.4343   -0.7417 C   0  0  0  0  0  0  0  0  0  0  0  0
    1.9193    0.4349    0.7417 C   0  0  0  0  0  0  0  0  0  0  0  0
   -2.7525    0.0002    0.0484 H   0  0  0  0  0  0  0  0  0  0  0  0
   -2.4800    1.4822   -0.9170 H   0  0  0  0  0  0  0  0  0  0  0  0
   -2.4613    1.5659    0.8685 H   0  0  0  0  0  0  0  0  0  0  0  0
    1.4594   -1.6287    0.0006 H   0  0  0  0  0  0  0  0  0  0  0  0
    2.7948    0.0850   -1.2655 H   0  0  0  0  0  0  0  0  0  0  0  0
    1.3687    1.2089   -1.2507 H   0  0  0  0  0  0  0  0  0  0  0  0
    2.7943    0.0862    1.2661 H   0  0  0  0  0  0  0  0  0  0  0  0
    1.3683    1.2101    1.2498 H   0  0  0  0  0  0  0  0  0  0  0  0
  1  2  1  0  0  0  0
  2  3  1  0  0  0  0
  3  4  2  0  0  0  0
  3  5  1  0  0  0  0
  5  6  1  0  0  0  0
  5  7  1  0  0  0  0
  6  7  1  0  0  0  0
  1  8  1  0  0  0  0
  1  9  1  0  0  0  0
  1 10  1  0  0  0  0
  5 11  1  0  0  0  0
  6 12  1  0  0  0  0
  6 13  1  0  0  0  0
  7 14  1  0  0  0  0
  7 15  1  0  0  0  0
M  END
