20
 xtb: 6.7.1 (edcfbbe)
C           -2.98266896222566        1.25513898694164       -0.01369614817159
C           -1.74767158704765        0.39679420210422        0.01116782085686
C           -1.83927166200674       -0.99385755692464        0.01290234441036
C           -0.68922144172110       -1.78377047515118        0.00348493261761
C            0.56633679269045       -1.19458224256562       -0.00464977105421
C            0.67697484358524        0.20645238612476       -0.00270295876421
C           -0.47633819272310        0.98669798194797        0.00507693122000
O            1.95823620070881        0.69627948370723       -0.00358962362374
C            2.11036087046683        2.12386206035152        0.00234996552892
O            1.74094525322824       -1.91786935219522       -0.00875812300038
H           -2.76502383063391        2.27207983502462        0.32323353680102
H           -3.39391213822230        1.32351731074075       -1.02799154271381
H           -3.76666623624164        0.83886825317504        0.62593908797296
H           -2.81400151061433       -1.47273373408162        0.02135252923141
H           -0.76290666265988       -2.86825401889989        0.00700427185725
H           -0.39898401167371        2.06790315377004        0.00809019013357
H            1.66244858941774        2.57080374791602       -0.89231266645676
H            3.18589215528026        2.30414274889205        0.00163748970093
H            1.66506506247683        2.56297302873813        0.90219385312183
H            1.51865554183331       -2.85889040388804       -0.00636897298190
