 xtb: 6.7.1 (edcfbbe)
          04062518003D

 24 24  0     0  0            999 V2000
   -2.2012   -1.0085   -0.4265 C   0  0  0  0  0  0  0  0  0  0  0  0
   -1.1620   -0.2387    0.3956 C   0  0  0  0  0  0  0  0  0  0  0  0
   -1.6715    0.1635    1.2794 H   0  0  0  0  0  0  0  0  0  0  0  0
   -0.5720    0.9135   -0.4397 C   0  0  0  0  0  0  0  0  0  0  0  0
   -0.3917    0.5627   -1.4632 H   0  0  0  0  0  0  0  0  0  0  0  0
    0.7703    1.3158    0.1984 C   0  0  0  0  0  0  0  0  0  0  0  0
    0.6266    1.4463    1.2789 H   0  0  0  0  0  0  0  0  0  0  0  0
    1.7583    0.1618   -0.0403 C   0  0  0  0  0  0  0  0  0  0  0  0
    2.0955    0.1791   -1.0827 H   0  0  0  0  0  0  0  0  0  0  0  0
    1.0381   -1.1963    0.1793 C   0  0  0  0  0  0  0  0  0  0  0  0
    1.6837   -1.8287    0.8054 H   0  0  0  0  0  0  0  0  0  0  0  0
   -0.1420   -1.0762    0.9348 O   0  0  0  0  0  0  0  0  0  0  0  0
    0.8204   -1.7766   -1.0690 O   0  0  0  0  0  0  0  0  0  0  0  0
    2.9253    0.2697    0.7272 O   0  0  0  0  0  0  0  0  0  0  0  0
    1.2457    2.5534   -0.2517 O   0  0  0  0  0  0  0  0  0  0  0  0
   -1.4685    1.9813   -0.5672 O   0  0  0  0  0  0  0  0  0  0  0  0
   -2.9370   -1.8533    0.4286 O   0  0  0  0  0  0  0  0  0  0  0  0
   -1.6909   -1.5821   -1.2085 H   0  0  0  0  0  0  0  0  0  0  0  0
   -2.8539   -0.2604   -0.8954 H   0  0  0  0  0  0  0  0  0  0  0  0
    0.5925   -2.7134   -0.9652 H   0  0  0  0  0  0  0  0  0  0  0  0
    2.7020    0.4111    1.6589 H   0  0  0  0  0  0  0  0  0  0  0  0
    1.3695    2.5351   -1.2113 H   0  0  0  0  0  0  0  0  0  0  0  0
   -1.5135    2.4782    0.2630 H   0  0  0  0  0  0  0  0  0  0  0  0
   -3.6044   -2.3256   -0.0886 H   0  0  0  0  0  0  0  0  0  0  0  0
  1  2  1  0  0  0  0
  2  3  1  0  0  0  0
  2  4  1  0  0  0  0
  4  5  1  0  0  0  0
  4  6  1  0  0  0  0
  6  7  1  0  0  0  0
  6  8  1  0  0  0  0
  8  9  1  0  0  0  0
  8 10  1  0  0  0  0
 10 11  1  0  0  0  0
  2 12  1  0  0  0  0
 10 12  1  0  0  0  0
 10 13  1  0  0  0  0
  8 14  1  0  0  0  0
  6 15  1  0  0  0  0
  4 16  1  0  0  0  0
  1 17  1  0  0  0  0
  1 18  1  0  0  0  0
  1 19  1  0  0  0  0
 13 20  1  0  0  0  0
 14 21  1  0  0  0  0
 15 22  1  0  0  0  0
 16 23  1  0  0  0  0
 17 24  1  0  0  0  0
M  END
