18
CONF2
C 0.4074015147 1.0834225518 -1.1449247394
C 0.3733923578 0.1764796455 0.0841030795
C 0.9503321605 0.9009093728 1.2937926139
C 1.1377439801 -1.1199595420 -0.1752884351
O -1.0065700098 -0.0996620619 0.4732143772
C -1.7706572642 -0.8925999383 -0.4355007484
H 0.0220871774 0.5789059881 -2.0354991931
H -0.1812790730 1.9894779568 -0.9691496146
H 1.4398783380 1.3789905199 -1.3546789327
H 1.9909042351 1.1793464834 1.1067039175
H 0.9173296307 0.2578412759 2.1789993604
H 0.3814011877 1.8124291266 1.5029522964
H 1.0358649024 -1.8056415223 0.6725717812
H 0.7896371850 -1.6231748928 -1.0819084866
H 2.2001064523 -0.8943260224 -0.3081716412
H -1.3910515144 -1.9198050011 -0.5075757321
H -1.8114344220 -0.4543469763 -1.4408834230
H -2.7864773629 -0.9272440720 -0.0326026813
18
CONF1
C 0.5208908080 0.8721757690 -1.2595616844
C 0.4231674743 0.0139758858 0.0000249265
C 0.5198963167 0.8764465766 1.2567651755
C 1.5126259113 -1.0512468559 0.0022702091
O -0.8155019958 -0.7610389536 0.0007565994
C -2.0276192037 -0.0066359152 0.0000245462
H 1.5168372027 1.3211999576 -1.3195215858
H 0.3651107396 0.2602909701 -2.1541617604
H -0.2092553808 1.6862955251 -1.2560494605
H 0.3641166368 0.2675452492 2.1533941776
H -0.2106757314 1.6901562478 1.2501068480
H 1.5155931730 1.3261655387 1.3155984916
H 1.4309710166 -1.6826866979 0.8925074614
H 1.4316100526 -1.6859012770 -0.8857446089
H 2.4993696881 -0.5803073178 0.0017642903
H -2.1250605046 0.6220945817 -0.8939679038
H -2.1261410837 0.6220435616 0.8939354749
H -2.8417506810 -0.7359629628 -0.0004829969
