 xtb: 6.7.1 (edcfbbe)
          04062518003D

 24 24  0     0  0            999 V2000
   -1.8686   -0.5958   -1.0876 C   0  0  0  0  0  0  0  0  0  0  0  0
   -1.2371   -0.5408    0.3209 C   0  0  0  0  0  0  0  0  0  0  0  0
   -1.9996   -0.8523    1.0480 H   0  0  0  0  0  0  0  0  0  0  0  0
   -0.7815    0.8732    0.6993 C   0  0  0  0  0  0  0  0  0  0  0  0
   -1.5941    1.5630    0.4351 H   0  0  0  0  0  0  0  0  0  0  0  0
    0.4632    1.3198   -0.0983 C   0  0  0  0  0  0  0  0  0  0  0  0
    1.0487    2.0010    0.5370 H   0  0  0  0  0  0  0  0  0  0  0  0
    1.3780    0.1295   -0.4271 C   0  0  0  0  0  0  0  0  0  0  0  0
    1.1419   -0.2416   -1.4383 H   0  0  0  0  0  0  0  0  0  0  0  0
    1.1095   -1.0147    0.5683 C   0  0  0  0  0  0  0  0  0  0  0  0
    1.2759   -0.6507    1.5956 H   0  0  0  0  0  0  0  0  0  0  0  0
   -0.1934   -1.5088    0.4069 O   0  0  0  0  0  0  0  0  0  0  0  0
    1.9958   -2.0631    0.3632 O   0  0  0  0  0  0  0  0  0  0  0  0
    2.7171    0.5511   -0.3639 O   0  0  0  0  0  0  0  0  0  0  0  0
    0.0140    1.9866   -1.2525 O   0  0  0  0  0  0  0  0  0  0  0  0
   -0.5516    0.8928    2.0882 O   0  0  0  0  0  0  0  0  0  0  0  0
   -3.1928   -0.1268   -1.1034 O   0  0  0  0  0  0  0  0  0  0  0  0
   -1.9161   -1.6459   -1.3841 H   0  0  0  0  0  0  0  0  0  0  0  0
   -1.2494   -0.0449   -1.8017 H   0  0  0  0  0  0  0  0  0  0  0  0
    1.5901   -2.7008   -0.2449 H   0  0  0  0  0  0  0  0  0  0  0  0
    3.2835   -0.2316   -0.2727 H   0  0  0  0  0  0  0  0  0  0  0  0
    0.7710    2.3733   -1.7156 H   0  0  0  0  0  0  0  0  0  0  0  0
   -0.5180    1.8061    2.4085 H   0  0  0  0  0  0  0  0  0  0  0  0
   -3.2000    0.8395   -1.0744 H   0  0  0  0  0  0  0  0  0  0  0  0
  1  2  1  0  0  0  0
  2  3  1  0  0  0  0
  2  4  1  0  0  0  0
  4  5  1  0  0  0  0
  4  6  1  0  0  0  0
  6  7  1  0  0  0  0
  6  8  1  0  0  0  0
  8  9  1  0  0  0  0
  8 10  1  0  0  0  0
 10 11  1  0  0  0  0
  2 12  1  0  0  0  0
 10 12  1  0  0  0  0
 10 13  1  0  0  0  0
  8 14  1  0  0  0  0
  6 15  1  0  0  0  0
  4 16  1  0  0  0  0
  1 17  1  0  0  0  0
  1 18  1  0  0  0  0
  1 19  1  0  0  0  0
 13 20  1  0  0  0  0
 14 21  1  0  0  0  0
 15 22  1  0  0  0  0
 16 23  1  0  0  0  0
 17 24  1  0  0  0  0
M  END
