25
 xtb: 6.7.1 (edcfbbe)
C           -2.53672218253518       -1.38450946192676       -0.42070862422557
C           -1.97173424124229       -0.02251975126410        0.01167045990091
C           -2.43462518231683        1.04834524936779       -0.99377453061970
C           -2.55370358350239        0.31102948282210        1.39355394658071
C           -0.44022781680789       -0.03372699218034        0.03331735658377
C            0.29668692610748       -0.80690180913115       -0.87384100392998
C            1.68713843560777       -0.78468001045561       -0.90247793088049
C            2.38266151479155        0.02873181950435       -0.01194521528746
C            1.68040940027669        0.81527590014742        0.89755205762400
C            0.28813588839270        0.77853568262196        0.91056707570101
O            3.76081917129599        0.01540961564114       -0.07309547838261
H           -2.17066739535959       -2.18881360880332        0.22674878414067
H           -3.62936344324227       -1.36270151995525       -0.35345270438163
H           -2.28023828083805       -1.63064212433371       -1.45490116146578
H           -2.06905052734350        2.03927769756826       -0.70316686096185
H           -2.05889977346846        0.82643469025334       -1.99857159093867
H           -3.52956359889846        1.08410719067967       -1.03604779023158
H           -2.30601101966324        1.32658007195410        1.71512149245389
H           -3.64551917446986        0.24016215473611        1.35395696998614
H           -2.19397868698105       -0.38950660463119        2.15510430794055
H           -0.21292861878056       -1.44953462042814       -1.58318650951594
H            2.23641229106564       -1.39671527510403       -1.61127629486128
H            2.21931790383635        1.45158564952254        1.59483812434605
H           -0.22622976270117        1.40567434496207        1.63012839707557
H            4.11136609391700        0.62023331399248        0.59523822736162
