 xtb: 6.7.1 (edcfbbe)
          04042519223D

 14 14  0     0  0            999 V2000
   -2.2370    0.2711    0.0001 C   0  0  0  0  0  0  0  0  0  0  0  0
   -1.7763   -1.0381    0.0001 C   0  0  0  0  0  0  0  0  0  0  0  0
   -0.4189   -1.2934    0.0000 C   0  0  0  0  0  0  0  0  0  0  0  0
    0.4904   -0.2327   -0.0000 C   0  0  0  0  0  0  0  0  0  0  0  0
    0.0174    1.0831   -0.0000 C   0  0  0  0  0  0  0  0  0  0  0  0
   -1.3405    1.3307    0.0000 C   0  0  0  0  0  0  0  0  0  0  0  0
    1.9234   -0.4960   -0.0000 C   0  0  0  0  0  0  0  0  0  0  0  0
    2.7989    0.3466   -0.0001 O   0  0  0  0  0  0  0  0  0  0  0  0
   -3.2982    0.4664    0.0001 H   0  0  0  0  0  0  0  0  0  0  0  0
   -2.4791   -1.8566    0.0001 H   0  0  0  0  0  0  0  0  0  0  0  0
   -0.0511   -2.3084    0.0001 H   0  0  0  0  0  0  0  0  0  0  0  0
    0.7378    1.8875   -0.0001 H   0  0  0  0  0  0  0  0  0  0  0  0
   -1.7036    2.3466   -0.0000 H   0  0  0  0  0  0  0  0  0  0  0  0
    2.1911   -1.5692   -0.0000 H   0  0  0  0  0  0  0  0  0  0  0  0
  1  2  4  0  0  0  0
  2  3  4  0  0  0  0
  3  4  4  0  0  0  0
  4  5  4  0  0  0  0
  1  6  4  0  0  0  0
  5  6  4  0  0  0  0
  4  7  1  0  0  0  0
  7  8  2  0  0  0  0
  1  9  1  0  0  0  0
  2 10  1  0  0  0  0
  3 11  1  0  0  0  0
  5 12  1  0  0  0  0
  6 13  1  0  0  0  0
  7 14  1  0  0  0  0
M  END
