24
 xtb: 6.7.1 (edcfbbe)
C           -2.55245782932062       -0.94120272235251        0.36482247666365
C           -1.13930133394868       -0.44775146958698        0.60761865053452
H           -0.98180236265741       -0.38010351962268        1.69822012085096
C           -0.84227111453226        0.91336957978631       -0.02841845945570
H           -1.05095840266254        0.86753105465710       -1.10271108764475
C            0.62559794827814        1.26628881748847        0.18858431372227
H            0.79767623166553        1.40107792335376        1.27006098291990
C            1.53248432001366        0.15129502850786       -0.31071233724822
H            1.41585598819630        0.04925979518427       -1.40261350218846
C            1.12884591891315       -1.17005450349015        0.33798254028007
H            1.27861079346755       -1.13043840439002        1.42715738702001
O           -0.24781586033610       -1.43322527975954        0.04964954381199
O            1.88074538539238       -2.25620086925434       -0.13169914129127
O            2.89887014652141        0.39706771875543        0.02891414113375
O            0.99412528273455        2.45778295736495       -0.51545128192086
O           -1.69227489200888        1.93749738745291        0.49765308395015
O           -2.88947370534091       -1.02078933339689       -1.02501558032926
H           -3.25718801924385       -0.24131629515099        0.82083667760409
H           -2.67363402411121       -1.91904858124726        0.85001617233383
H            1.89710650550150       -2.21790613161175       -1.10005366272024
H            3.13560180446152        1.25633376211603       -0.34587664876844
H            0.46416397854070        3.17969115718072       -0.15083614527321
H           -1.53387251989049        1.98855240572666        1.45187914009112
H           -2.30351597477123       -1.67522260635455       -1.42781615988312
