 xtb: 6.7.1 (edcfbbe)
          04062518003D

 24 24  0     0  0            999 V2000
   -2.2797   -0.7226   -0.7371 C   0  0  0  0  0  0  0  0  0  0  0  0
   -1.0917   -0.5719    0.2243 C   0  0  0  0  0  0  0  0  0  0  0  0
   -1.3449   -0.9831    1.2169 H   0  0  0  0  0  0  0  0  0  0  0  0
   -0.7169    0.9159    0.4282 C   0  0  0  0  0  0  0  0  0  0  0  0
   -1.5751    1.5198    0.1108 H   0  0  0  0  0  0  0  0  0  0  0  0
    0.5005    1.2704   -0.4346 C   0  0  0  0  0  0  0  0  0  0  0  0
    0.7889    2.3061   -0.2007 H   0  0  0  0  0  0  0  0  0  0  0  0
    1.6882    0.3671   -0.0315 C   0  0  0  0  0  0  0  0  0  0  0  0
    2.4076    0.3334   -0.8610 H   0  0  0  0  0  0  0  0  0  0  0  0
    1.2090   -1.0850    0.2500 C   0  0  0  0  0  0  0  0  0  0  0  0
    1.1449   -1.2211    1.3463 H   0  0  0  0  0  0  0  0  0  0  0  0
   -0.0384   -1.3341   -0.3390 O   0  0  0  0  0  0  0  0  0  0  0  0
    2.1061   -2.0267   -0.2310 O   0  0  0  0  0  0  0  0  0  0  0  0
    2.2750    0.9403    1.1145 O   0  0  0  0  0  0  0  0  0  0  0  0
    0.1460    1.1317   -1.7827 O   0  0  0  0  0  0  0  0  0  0  0  0
   -0.4934    1.2198    1.7852 O   0  0  0  0  0  0  0  0  0  0  0  0
   -3.4389   -0.0790   -0.2833 O   0  0  0  0  0  0  0  0  0  0  0  0
   -2.4503   -1.7917   -0.9094 H   0  0  0  0  0  0  0  0  0  0  0  0
   -2.0114   -0.2514   -1.6847 H   0  0  0  0  0  0  0  0  0  0  0  0
    1.8089   -2.3134   -1.1085 H   0  0  0  0  0  0  0  0  0  0  0  0
    3.0994    0.4810    1.3309 H   0  0  0  0  0  0  0  0  0  0  0  0
    0.8274    1.5241   -2.3477 H   0  0  0  0  0  0  0  0  0  0  0  0
    0.4588    1.1797    1.9773 H   0  0  0  0  0  0  0  0  0  0  0  0
   -3.7540   -0.5060    0.5263 H   0  0  0  0  0  0  0  0  0  0  0  0
  1  2  1  0  0  0  0
  2  3  1  0  0  0  0
  2  4  1  0  0  0  0
  4  5  1  0  0  0  0
  4  6  1  0  0  0  0
  6  7  1  0  0  0  0
  6  8  1  0  0  0  0
  8  9  1  0  0  0  0
  8 10  1  0  0  0  0
 10 11  1  0  0  0  0
  2 12  1  0  0  0  0
 10 12  1  0  0  0  0
 10 13  1  0  0  0  0
  8 14  1  0  0  0  0
  6 15  1  0  0  0  0
  4 16  1  0  0  0  0
  1 17  1  0  0  0  0
  1 18  1  0  0  0  0
  1 19  1  0  0  0  0
 13 20  1  0  0  0  0
 14 21  1  0  0  0  0
 15 22  1  0  0  0  0
 16 23  1  0  0  0  0
 17 24  1  0  0  0  0
M  END
