 xtb: 6.7.1 (edcfbbe)
          04042519423D

 14 13  0     0  0            999 V2000
   -1.6143   -1.6869   -0.3619 C   0  0  0  0  0  0  0  0  0  0  0  0
   -1.6036   -0.2317   -0.8206 C   0  0  0  0  0  0  0  0  0  0  0  0
   -2.2535    0.6770    0.2186 C   0  0  0  0  0  0  0  0  0  0  0  0
   -0.1966    0.2337   -1.1662 C   0  0  0  0  0  0  0  0  0  0  0  0
    1.0311    0.1861    0.3766 Br  0  0  0  0  0  0  0  0  0  0  0  0
   -1.0566   -1.7967    0.5661 H   0  0  0  0  0  0  0  0  0  0  0  0
   -2.6343   -2.0177   -0.1877 H   0  0  0  0  0  0  0  0  0  0  0  0
   -1.1654   -2.3327   -1.1136 H   0  0  0  0  0  0  0  0  0  0  0  0
   -2.1707   -0.1551   -1.7569 H   0  0  0  0  0  0  0  0  0  0  0  0
   -3.2791    0.3673    0.3987 H   0  0  0  0  0  0  0  0  0  0  0  0
   -2.2594    1.7105   -0.1209 H   0  0  0  0  0  0  0  0  0  0  0  0
   -1.7109    0.6255    1.1606 H   0  0  0  0  0  0  0  0  0  0  0  0
   -0.1873    1.2688   -1.5034 H   0  0  0  0  0  0  0  0  0  0  0  0
    0.2657   -0.4067   -1.9156 H   0  0  0  0  0  0  0  0  0  0  0  0
  1  2  1  0  0  0  0
  2  3  1  0  0  0  0
  2  4  1  0  0  0  0
  4  5  1  0  0  0  0
  1  6  1  0  0  0  0
  1  7  1  0  0  0  0
  1  8  1  0  0  0  0
  2  9  1  0  0  0  0
  3 10  1  0  0  0  0
  3 11  1  0  0  0  0
  3 12  1  0  0  0  0
  4 13  1  0  0  0  0
  4 14  1  0  0  0  0
M  END
