 xtb: 6.7.1 (edcfbbe)
          04032521253D

 12 12  0     0  0            999 V2000
   -0.0000   -1.3909    0.0001 C   0  0  0  0  0  0  0  0  0  0  0  0
    1.1999   -0.6968    0.0001 C   0  0  0  0  0  0  0  0  0  0  0  0
    1.1999    0.6968    0.0002 C   0  0  0  0  0  0  0  0  0  0  0  0
   -0.0000    1.3908    0.0001 C   0  0  0  0  0  0  0  0  0  0  0  0
   -1.1999    0.6968    0.0001 C   0  0  0  0  0  0  0  0  0  0  0  0
   -1.1999   -0.6968    0.0000 C   0  0  0  0  0  0  0  0  0  0  0  0
   -2.6868   -1.5665   -0.0000 Cl  0  0  0  0  0  0  0  0  0  0  0  0
   -2.6868    1.5665   -0.0001 Cl  0  0  0  0  0  0  0  0  0  0  0  0
    2.6868    1.5665   -0.0000 Cl  0  0  0  0  0  0  0  0  0  0  0  0
    2.6868   -1.5665   -0.0001 Cl  0  0  0  0  0  0  0  0  0  0  0  0
   -0.0000   -2.4683    0.0001 H   0  0  0  0  0  0  0  0  0  0  0  0
   -0.0000    2.4683   -0.0001 H   0  0  0  0  0  0  0  0  0  0  0  0
  1  2  4  0  0  0  0
  2  3  4  0  0  0  0
  3  4  4  0  0  0  0
  4  5  4  0  0  0  0
  1  6  4  0  0  0  0
  5  6  4  0  0  0  0
  6  7  1  0  0  0  0
  5  8  1  0  0  0  0
  3  9  1  0  0  0  0
  2 10  1  0  0  0  0
  1 11  1  0  0  0  0
  4 12  1  0  0  0  0
M  END
