12
 xtb: 6.7.1 (edcfbbe)
C            1.67820340680335       -1.20397505005196        0.04761996161700
C            0.92490638791343       -0.00033182427084       -0.47794293579480
H            0.89883299693463       -0.00614864087068       -1.57591698512074
C           -0.53105237585280       -0.01487271518625       -0.02114892333227
F           -1.19340583854121       -1.09100347238684       -0.51081075725142
F           -0.65462730826171       -0.04809230227940        1.32723283932300
F           -1.19899599114239        1.08815916911855       -0.44623401717245
O            1.55253964445177        1.18163120283720        0.01362243788466
H            2.69766991582654       -1.18168675598839       -0.34334651418474
H            1.20367183156536       -2.13220825169474       -0.27895723366848
H            1.71831602854590       -1.18724029872820        1.14024907118814
H            1.23853823644450        1.93376874037232       -0.50668217564491
