 xtb: 6.7.1 (edcfbbe)
          04032521153D

 17 17  0     0  0            999 V2000
   -1.4680   -0.0007    0.2355 C   0  0  0  0  0  0  0  0  0  0  0  0
   -0.7292    1.2504   -0.2371 C   0  0  0  0  0  0  0  0  0  0  0  0
    0.7288    1.1993    0.2351 C   0  0  0  0  0  0  0  0  0  0  0  0
    1.4284    0.0007   -0.1987 N   0  0  0  0  0  0  0  0  0  0  0  0
    0.7299   -1.1987    0.2351 C   0  0  0  0  0  0  0  0  0  0  0  0
   -0.7280   -1.2511   -0.2371 C   0  0  0  0  0  0  0  0  0  0  0  0
   -2.4916   -0.0012   -0.1450 H   0  0  0  0  0  0  0  0  0  0  0  0
   -1.5136   -0.0007    1.3272 H   0  0  0  0  0  0  0  0  0  0  0  0
   -0.7534    1.2979   -1.3292 H   0  0  0  0  0  0  0  0  0  0  0  0
   -1.2123    2.1478    0.1518 H   0  0  0  0  0  0  0  0  0  0  0  0
    1.2804    2.0670   -0.1339 H   0  0  0  0  0  0  0  0  0  0  0  0
    0.7582    1.2145    1.3291 H   0  0  0  0  0  0  0  0  0  0  0  0
    1.4803    0.0007   -1.2141 H   0  0  0  0  0  0  0  0  0  0  0  0
    1.2824   -2.0658   -0.1339 H   0  0  0  0  0  0  0  0  0  0  0  0
    0.7594   -1.2138    1.3291 H   0  0  0  0  0  0  0  0  0  0  0  0
   -0.7521   -1.2986   -1.3292 H   0  0  0  0  0  0  0  0  0  0  0  0
   -1.2103   -2.1489    0.1518 H   0  0  0  0  0  0  0  0  0  0  0  0
  1  2  1  0  0  0  0
  2  3  1  0  0  0  0
  3  4  1  0  0  0  0
  4  5  1  0  0  0  0
  1  6  1  0  0  0  0
  5  6  1  0  0  0  0
  1  7  1  0  0  0  0
  1  8  1  0  0  0  0
  2  9  1  0  0  0  0
  2 10  1  0  0  0  0
  3 11  1  0  0  0  0
  3 12  1  0  0  0  0
  4 13  1  0  0  0  0
  5 14  1  0  0  0  0
  5 15  1  0  0  0  0
  6 16  1  0  0  0  0
  6 17  1  0  0  0  0
M  END
