 xtb: 6.7.1 (edcfbbe)
          04052503093D

 19 19  0     0  0            999 V2000
   -3.3193    0.7657   -0.1218 C   0  0  0  0  0  0  0  0  0  0  0  0
   -2.4711   -0.4833    0.0919 C   0  0  0  0  0  0  0  0  0  0  0  0
   -0.9813   -0.2587    0.0491 C   0  0  0  0  0  0  0  0  0  0  0  0
   -0.3958    0.9801    0.2651 C   0  0  0  0  0  0  0  0  0  0  0  0
    0.9793    1.1387    0.2323 C   0  0  0  0  0  0  0  0  0  0  0  0
    1.8036    0.0502   -0.0150 C   0  0  0  0  0  0  0  0  0  0  0  0
    1.2297   -1.1994   -0.2293 C   0  0  0  0  0  0  0  0  0  0  0  0
   -0.1419   -1.3422   -0.1974 C   0  0  0  0  0  0  0  0  0  0  0  0
    3.1629    0.1523   -0.0586 O   0  0  0  0  0  0  0  0  0  0  0  0
   -4.3676    0.4881   -0.1999 H   0  0  0  0  0  0  0  0  0  0  0  0
   -3.0282    1.2730   -1.0387 H   0  0  0  0  0  0  0  0  0  0  0  0
   -3.2165    1.4577    0.7100 H   0  0  0  0  0  0  0  0  0  0  0  0
   -2.7259   -1.2222   -0.6718 H   0  0  0  0  0  0  0  0  0  0  0  0
   -2.7251   -0.9251    1.0608 H   0  0  0  0  0  0  0  0  0  0  0  0
   -1.0082    1.8454    0.4614 H   0  0  0  0  0  0  0  0  0  0  0  0
    1.4096    2.1158    0.4005 H   0  0  0  0  0  0  0  0  0  0  0  0
    1.8762   -2.0415   -0.4212 H   0  0  0  0  0  0  0  0  0  0  0  0
   -0.5726   -2.3184   -0.3675 H   0  0  0  0  0  0  0  0  0  0  0  0
    3.4374    1.0671    0.1041 H   0  0  0  0  0  0  0  0  0  0  0  0
  1  2  1  0  0  0  0
  2  3  1  0  0  0  0
  3  4  4  0  0  0  0
  4  5  4  0  0  0  0
  5  6  4  0  0  0  0
  6  7  4  0  0  0  0
  3  8  4  0  0  0  0
  7  8  4  0  0  0  0
  6  9  1  0  0  0  0
  1 10  1  0  0  0  0
  1 11  1  0  0  0  0
  1 12  1  0  0  0  0
  2 13  1  0  0  0  0
  2 14  1  0  0  0  0
  4 15  1  0  0  0  0
  5 16  1  0  0  0  0
  7 17  1  0  0  0  0
  8 18  1  0  0  0  0
  9 19  1  0  0  0  0
M  END
