 xtb: 6.7.1 (edcfbbe)
          04062518003D

 24 24  0     0  0            999 V2000
   -1.7536   -1.0136   -0.7114 C   0  0  0  0  0  0  0  0  0  0  0  0
   -1.0538   -0.4823    0.5472 C   0  0  0  0  0  0  0  0  0  0  0  0
   -1.7486   -0.5828    1.3890 H   0  0  0  0  0  0  0  0  0  0  0  0
   -0.7075    1.0104    0.4120 C   0  0  0  0  0  0  0  0  0  0  0  0
   -1.5590    1.4962   -0.0758 H   0  0  0  0  0  0  0  0  0  0  0  0
    0.5492    1.2377   -0.4483 C   0  0  0  0  0  0  0  0  0  0  0  0
    0.8720    2.2753   -0.2656 H   0  0  0  0  0  0  0  0  0  0  0  0
    1.6940    0.3231    0.0317 C   0  0  0  0  0  0  0  0  0  0  0  0
    2.4971    0.3370   -0.7196 H   0  0  0  0  0  0  0  0  0  0  0  0
    1.2365   -1.1415    0.1679 C   0  0  0  0  0  0  0  0  0  0  0  0
    1.9809   -1.6861    0.7744 H   0  0  0  0  0  0  0  0  0  0  0  0
    0.0609   -1.2845    0.9216 O   0  0  0  0  0  0  0  0  0  0  0  0
    1.1552   -1.6868   -1.1106 O   0  0  0  0  0  0  0  0  0  0  0  0
    2.1368    0.8372    1.2629 O   0  0  0  0  0  0  0  0  0  0  0  0
    0.2253    1.0454   -1.7977 O   0  0  0  0  0  0  0  0  0  0  0  0
   -0.5718    1.6302    1.6663 O   0  0  0  0  0  0  0  0  0  0  0  0
   -3.0264   -0.4097   -0.7833 O   0  0  0  0  0  0  0  0  0  0  0  0
   -1.8510   -2.1033   -0.6110 H   0  0  0  0  0  0  0  0  0  0  0  0
   -1.1519   -0.7752   -1.5933 H   0  0  0  0  0  0  0  0  0  0  0  0
    0.9672   -2.6357   -1.0572 H   0  0  0  0  0  0  0  0  0  0  0  0
    2.9280    0.3665    1.5631 H   0  0  0  0  0  0  0  0  0  0  0  0
    0.9710    1.3048   -2.3579 H   0  0  0  0  0  0  0  0  0  0  0  0
    0.2653    1.3410    2.0667 H   0  0  0  0  0  0  0  0  0  0  0  0
   -3.4348   -0.6394   -1.6297 H   0  0  0  0  0  0  0  0  0  0  0  0
  1  2  1  0  0  0  0
  2  3  1  0  0  0  0
  2  4  1  0  0  0  0
  4  5  1  0  0  0  0
  4  6  1  0  0  0  0
  6  7  1  0  0  0  0
  6  8  1  0  0  0  0
  8  9  1  0  0  0  0
  8 10  1  0  0  0  0
 10 11  1  0  0  0  0
  2 12  1  0  0  0  0
 10 12  1  0  0  0  0
 10 13  1  0  0  0  0
  8 14  1  0  0  0  0
  6 15  1  0  0  0  0
  4 16  1  0  0  0  0
  1 17  1  0  0  0  0
  1 18  1  0  0  0  0
  1 19  1  0  0  0  0
 13 20  1  0  0  0  0
 14 21  1  0  0  0  0
 15 22  1  0  0  0  0
 16 23  1  0  0  0  0
 17 24  1  0  0  0  0
M  END
