 xtb: 6.7.1 (edcfbbe)
          04032521393D

 13 13  0     0  0            999 V2000
   -1.9446    0.6453    0.0000 C   0  0  0  0  0  0  0  0  0  0  0  0
   -1.9090   -0.7399   -0.0001 C   0  0  0  0  0  0  0  0  0  0  0  0
   -0.6902   -1.3965   -0.0001 C   0  0  0  0  0  0  0  0  0  0  0  0
    0.4661   -0.6469   -0.0000 C   0  0  0  0  0  0  0  0  0  0  0  0
    0.4620    0.7450    0.0001 C   0  0  0  0  0  0  0  0  0  0  0  0
   -0.7759    1.3828    0.0001 C   0  0  0  0  0  0  0  0  0  0  0  0
    1.5947    1.4863    0.0001 O   0  0  0  0  0  0  0  0  0  0  0  0
    1.6848   -1.2860   -0.0001 F   0  0  0  0  0  0  0  0  0  0  0  0
   -2.8923    1.1591    0.0000 H   0  0  0  0  0  0  0  0  0  0  0  0
   -2.8228   -1.3104   -0.0001 H   0  0  0  0  0  0  0  0  0  0  0  0
   -0.6216   -2.4720   -0.0002 H   0  0  0  0  0  0  0  0  0  0  0  0
   -0.7890    2.4603    0.0002 H   0  0  0  0  0  0  0  0  0  0  0  0
    2.3813    0.9183    0.0001 H   0  0  0  0  0  0  0  0  0  0  0  0
  1  2  4  0  0  0  0
  2  3  4  0  0  0  0
  3  4  4  0  0  0  0
  4  5  4  0  0  0  0
  1  6  4  0  0  0  0
  5  6  4  0  0  0  0
  5  7  1  0  0  0  0
  4  8  1  0  0  0  0
  1  9  1  0  0  0  0
  2 10  1  0  0  0  0
  3 11  1  0  0  0  0
  6 12  1  0  0  0  0
  7 13  1  0  0  0  0
M  END
