 xtb: 6.7.1 (edcfbbe)
          04062518003D

 24 24  0     0  0            999 V2000
   -2.2300   -0.8074   -0.2399 C   0  0  0  0  0  0  0  0  0  0  0  0
   -1.1797   -0.2889    0.7681 C   0  0  0  0  0  0  0  0  0  0  0  0
   -1.6900   -0.2885    1.7408 H   0  0  0  0  0  0  0  0  0  0  0  0
   -0.7104    1.1562    0.5052 C   0  0  0  0  0  0  0  0  0  0  0  0
   -1.5420    1.7121    0.0498 H   0  0  0  0  0  0  0  0  0  0  0  0
    0.4840    1.2488   -0.4584 C   0  0  0  0  0  0  0  0  0  0  0  0
    0.8842    2.2721   -0.3721 H   0  0  0  0  0  0  0  0  0  0  0  0
    1.5965    0.2852   -0.0139 C   0  0  0  0  0  0  0  0  0  0  0  0
    2.3586    0.2107   -0.7982 H   0  0  0  0  0  0  0  0  0  0  0  0
    1.0396   -1.1393    0.1813 C   0  0  0  0  0  0  0  0  0  0  0  0
    1.7787   -1.7208    0.7604 H   0  0  0  0  0  0  0  0  0  0  0  0
   -0.1050   -1.2016    0.9899 O   0  0  0  0  0  0  0  0  0  0  0  0
    0.8692   -1.6823   -1.0889 O   0  0  0  0  0  0  0  0  0  0  0  0
    2.2562    0.7540    1.1298 O   0  0  0  0  0  0  0  0  0  0  0  0
    0.0163    1.0168   -1.7621 O   0  0  0  0  0  0  0  0  0  0  0  0
   -0.2940    1.7783    1.7016 O   0  0  0  0  0  0  0  0  0  0  0  0
   -1.7772   -1.0949   -1.5321 O   0  0  0  0  0  0  0  0  0  0  0  0
   -3.0425   -0.0655   -0.2717 H   0  0  0  0  0  0  0  0  0  0  0  0
   -2.6331   -1.7475    0.1464 H   0  0  0  0  0  0  0  0  0  0  0  0
    0.3966   -2.5261   -1.0346 H   0  0  0  0  0  0  0  0  0  0  0  0
    1.5926    1.0411    1.7814 H   0  0  0  0  0  0  0  0  0  0  0  0
    0.7620    0.9761   -2.3774 H   0  0  0  0  0  0  0  0  0  0  0  0
   -1.0457    1.8922    2.3005 H   0  0  0  0  0  0  0  0  0  0  0  0
   -1.2297   -0.3527   -1.8533 H   0  0  0  0  0  0  0  0  0  0  0  0
  1  2  1  0  0  0  0
  2  3  1  0  0  0  0
  2  4  1  0  0  0  0
  4  5  1  0  0  0  0
  4  6  1  0  0  0  0
  6  7  1  0  0  0  0
  6  8  1  0  0  0  0
  8  9  1  0  0  0  0
  8 10  1  0  0  0  0
 10 11  1  0  0  0  0
  2 12  1  0  0  0  0
 10 12  1  0  0  0  0
 10 13  1  0  0  0  0
  8 14  1  0  0  0  0
  6 15  1  0  0  0  0
  4 16  1  0  0  0  0
  1 17  1  0  0  0  0
  1 18  1  0  0  0  0
  1 19  1  0  0  0  0
 13 20  1  0  0  0  0
 14 21  1  0  0  0  0
 15 22  1  0  0  0  0
 16 23  1  0  0  0  0
 17 24  1  0  0  0  0
M  END
