 xtb: 6.7.1 (edcfbbe)
          04062518003D

 24 24  0     0  0            999 V2000
   -2.4180   -0.6769    0.0085 C   0  0  0  0  0  0  0  0  0  0  0  0
   -0.9849   -0.2630    0.3538 C   0  0  0  0  0  0  0  0  0  0  0  0
   -0.9410    0.0383    1.4092 H   0  0  0  0  0  0  0  0  0  0  0  0
   -0.5080    0.9030   -0.5145 C   0  0  0  0  0  0  0  0  0  0  0  0
   -0.4780    0.5608   -1.5617 H   0  0  0  0  0  0  0  0  0  0  0  0
    0.9183    1.3201   -0.0924 C   0  0  0  0  0  0  0  0  0  0  0  0
    0.8363    2.0942    0.6787 H   0  0  0  0  0  0  0  0  0  0  0  0
    1.6893    0.1374    0.5293 C   0  0  0  0  0  0  0  0  0  0  0  0
    2.7511    0.2626    0.2748 H   0  0  0  0  0  0  0  0  0  0  0  0
    1.1961   -1.1721   -0.1062 C   0  0  0  0  0  0  0  0  0  0  0  0
    1.7252   -2.0353    0.3277 H   0  0  0  0  0  0  0  0  0  0  0  0
   -0.1603   -1.4141    0.1582 O   0  0  0  0  0  0  0  0  0  0  0  0
    1.4550   -1.0781   -1.4762 O   0  0  0  0  0  0  0  0  0  0  0  0
    1.4935    0.1539    1.9179 O   0  0  0  0  0  0  0  0  0  0  0  0
    1.6220    1.8980   -1.1604 O   0  0  0  0  0  0  0  0  0  0  0  0
   -1.4218    1.9612   -0.3798 O   0  0  0  0  0  0  0  0  0  0  0  0
   -2.9131   -1.6584    0.8814 O   0  0  0  0  0  0  0  0  0  0  0  0
   -2.4454   -1.0345   -1.0294 H   0  0  0  0  0  0  0  0  0  0  0  0
   -3.0677    0.1932    0.1078 H   0  0  0  0  0  0  0  0  0  0  0  0
    1.2269   -1.9108   -1.9176 H   0  0  0  0  0  0  0  0  0  0  0  0
    2.0804   -0.4842    2.3493 H   0  0  0  0  0  0  0  0  0  0  0  0
    1.7823    1.2174   -1.8332 H   0  0  0  0  0  0  0  0  0  0  0  0
   -1.0976    2.7207   -0.8865 H   0  0  0  0  0  0  0  0  0  0  0  0
   -2.2904   -2.4001    0.8877 H   0  0  0  0  0  0  0  0  0  0  0  0
  1  2  1  0  0  0  0
  2  3  1  0  0  0  0
  2  4  1  0  0  0  0
  4  5  1  0  0  0  0
  4  6  1  0  0  0  0
  6  7  1  0  0  0  0
  6  8  1  0  0  0  0
  8  9  1  0  0  0  0
  8 10  1  0  0  0  0
 10 11  1  0  0  0  0
  2 12  1  0  0  0  0
 10 12  1  0  0  0  0
 10 13  1  0  0  0  0
  8 14  1  0  0  0  0
  6 15  1  0  0  0  0
  4 16  1  0  0  0  0
  1 17  1  0  0  0  0
  1 18  1  0  0  0  0
  1 19  1  0  0  0  0
 13 20  1  0  0  0  0
 14 21  1  0  0  0  0
 15 22  1  0  0  0  0
 16 23  1  0  0  0  0
 17 24  1  0  0  0  0
M  END
