 xtb: 6.7.1 (edcfbbe)
          04062518003D

 24 24  0     0  0            999 V2000
   -2.0851   -1.3623   -0.1131 C   0  0  0  0  0  0  0  0  0  0  0  0
   -1.0118   -0.5015    0.5742 C   0  0  0  0  0  0  0  0  0  0  0  0
   -1.4349   -0.1207    1.5125 H   0  0  0  0  0  0  0  0  0  0  0  0
   -0.6221    0.6975   -0.2999 C   0  0  0  0  0  0  0  0  0  0  0  0
   -0.4992    0.3673   -1.3459 H   0  0  0  0  0  0  0  0  0  0  0  0
    0.7217    1.2453    0.1964 C   0  0  0  0  0  0  0  0  0  0  0  0
    0.6616    1.4244    1.2758 H   0  0  0  0  0  0  0  0  0  0  0  0
    1.8056    0.1937   -0.0775 C   0  0  0  0  0  0  0  0  0  0  0  0
    2.1263    0.2724   -1.1290 H   0  0  0  0  0  0  0  0  0  0  0  0
    1.2306   -1.2289    0.0974 C   0  0  0  0  0  0  0  0  0  0  0  0
    1.9904   -1.8277    0.6178 H   0  0  0  0  0  0  0  0  0  0  0  0
    0.1215   -1.2780    0.9551 O   0  0  0  0  0  0  0  0  0  0  0  0
    0.9446   -1.7345   -1.1698 O   0  0  0  0  0  0  0  0  0  0  0  0
    2.9082    0.3189    0.7813 O   0  0  0  0  0  0  0  0  0  0  0  0
    1.0084    2.4945   -0.3804 O   0  0  0  0  0  0  0  0  0  0  0  0
   -1.6431    1.6619   -0.2325 O   0  0  0  0  0  0  0  0  0  0  0  0
   -3.3438   -0.7377   -0.1002 O   0  0  0  0  0  0  0  0  0  0  0  0
   -2.1982   -2.2989    0.4376 H   0  0  0  0  0  0  0  0  0  0  0  0
   -1.7740   -1.5861   -1.1433 H   0  0  0  0  0  0  0  0  0  0  0  0
    0.8003   -2.6917   -1.1236 H   0  0  0  0  0  0  0  0  0  0  0  0
    3.2544    1.2234    0.7309 H   0  0  0  0  0  0  0  0  0  0  0  0
    1.1552    2.3926   -1.3335 H   0  0  0  0  0  0  0  0  0  0  0  0
   -1.2396    2.5441   -0.2922 H   0  0  0  0  0  0  0  0  0  0  0  0
   -3.2375    0.1857   -0.3792 H   0  0  0  0  0  0  0  0  0  0  0  0
  1  2  1  0  0  0  0
  2  3  1  0  0  0  0
  2  4  1  0  0  0  0
  4  5  1  0  0  0  0
  4  6  1  0  0  0  0
  6  7  1  0  0  0  0
  6  8  1  0  0  0  0
  8  9  1  0  0  0  0
  8 10  1  0  0  0  0
 10 11  1  0  0  0  0
  2 12  1  0  0  0  0
 10 12  1  0  0  0  0
 10 13  1  0  0  0  0
  8 14  1  0  0  0  0
  6 15  1  0  0  0  0
  4 16  1  0  0  0  0
  1 17  1  0  0  0  0
  1 18  1  0  0  0  0
  1 19  1  0  0  0  0
 13 20  1  0  0  0  0
 14 21  1  0  0  0  0
 15 22  1  0  0  0  0
 16 23  1  0  0  0  0
 17 24  1  0  0  0  0
M  END
