 xtb: 6.7.1 (edcfbbe)
          04032521503D

 21 21  0     0  0            999 V2000
    2.4662    0.0107    0.0720 C   0  0  0  0  0  0  0  0  0  0  0  0
    0.9645    0.0298    0.3435 C   0  0  0  0  0  0  0  0  0  0  0  0
    0.2750    1.1634   -0.4145 C   0  0  0  0  0  0  0  0  0  0  0  0
   -1.1837    1.3114    0.0361 C   0  0  0  0  0  0  0  0  0  0  0  0
   -1.7917   -0.0419    0.4260 C   0  0  0  0  0  0  0  0  0  0  0  0
   -1.1625   -1.1600   -0.3974 C   0  0  0  0  0  0  0  0  0  0  0  0
    0.3228   -1.3118   -0.0466 C   0  0  0  0  0  0  0  0  0  0  0  0
    2.9295    0.9326    0.4162 H   0  0  0  0  0  0  0  0  0  0  0  0
    2.9349   -0.8239    0.5887 H   0  0  0  0  0  0  0  0  0  0  0  0
    2.6584   -0.0924   -0.9941 H   0  0  0  0  0  0  0  0  0  0  0  0
    0.8143    0.2002    1.4150 H   0  0  0  0  0  0  0  0  0  0  0  0
    0.8076    2.1018   -0.2496 H   0  0  0  0  0  0  0  0  0  0  0  0
    0.3193    0.9464   -1.4835 H   0  0  0  0  0  0  0  0  0  0  0  0
   -1.2397    1.9892    0.8899 H   0  0  0  0  0  0  0  0  0  0  0  0
   -1.7636    1.7581   -0.7736 H   0  0  0  0  0  0  0  0  0  0  0  0
   -1.6149   -0.2423    1.4845 H   0  0  0  0  0  0  0  0  0  0  0  0
   -2.8719   -0.0210    0.2724 H   0  0  0  0  0  0  0  0  0  0  0  0
   -1.6827   -2.1018   -0.2148 H   0  0  0  0  0  0  0  0  0  0  0  0
   -1.2767   -0.9229   -1.4566 H   0  0  0  0  0  0  0  0  0  0  0  0
    0.4372   -2.0145    0.7811 H   0  0  0  0  0  0  0  0  0  0  0  0
    0.8525   -1.7304   -0.9048 H   0  0  0  0  0  0  0  0  0  0  0  0
  1  2  1  0  0  0  0
  2  3  1  0  0  0  0
  3  4  1  0  0  0  0
  4  5  1  0  0  0  0
  5  6  1  0  0  0  0
  2  7  1  0  0  0  0
  6  7  1  0  0  0  0
  1  8  1  0  0  0  0
  1  9  1  0  0  0  0
  1 10  1  0  0  0  0
  2 11  1  0  0  0  0
  3 12  1  0  0  0  0
  3 13  1  0  0  0  0
  4 14  1  0  0  0  0
  4 15  1  0  0  0  0
  5 16  1  0  0  0  0
  5 17  1  0  0  0  0
  6 18  1  0  0  0  0
  6 19  1  0  0  0  0
  7 20  1  0  0  0  0
  7 21  1  0  0  0  0
M  END
