 xtb: 6.7.1 (edcfbbe)
          04042516023D

 14 13  0     0  0            999 V2000
   -1.8838   -1.2419   -0.0199 C   0  0  0  0  0  0  0  0  0  0  0  0
   -1.5158    0.2347    0.0185 C   0  0  0  0  0  0  0  0  0  0  0  0
   -0.0341    0.5099    0.0073 C   0  0  0  0  0  0  0  0  0  0  0  0
    0.4380    1.6315    0.0086 O   0  0  0  0  0  0  0  0  0  0  0  0
    0.6968   -0.5935   -0.0023 O   0  0  0  0  0  0  0  0  0  0  0  0
    2.1226   -0.4867   -0.0105 C   0  0  0  0  0  0  0  0  0  0  0  0
   -2.9645   -1.3488   -0.0079 H   0  0  0  0  0  0  0  0  0  0  0  0
   -1.4956   -1.7097   -0.9200 H   0  0  0  0  0  0  0  0  0  0  0  0
   -1.4708   -1.7613    0.8399 H   0  0  0  0  0  0  0  0  0  0  0  0
   -1.9173    0.7113    0.9157 H   0  0  0  0  0  0  0  0  0  0  0  0
   -1.9416    0.7654   -0.8359 H   0  0  0  0  0  0  0  0  0  0  0  0
    2.4871   -1.0445   -0.8707 H   0  0  0  0  0  0  0  0  0  0  0  0
    2.4972   -0.9268    0.9121 H   0  0  0  0  0  0  0  0  0  0  0  0
    2.4162    0.5616   -0.0784 H   0  0  0  0  0  0  0  0  0  0  0  0
  1  2  1  0  0  0  0
  2  3  1  0  0  0  0
  3  4  2  0  0  0  0
  3  5  1  0  0  0  0
  5  6  1  0  0  0  0
  1  7  1  0  0  0  0
  1  8  1  0  0  0  0
  1  9  1  0  0  0  0
  2 10  1  0  0  0  0
  2 11  1  0  0  0  0
  6 12  1  0  0  0  0
  6 13  1  0  0  0  0
  6 14  1  0  0  0  0
M  END
