 xtb: 6.7.1 (edcfbbe)
          04032521433D

 15 14  0     0  0            999 V2000
   -2.0421    0.0334    0.0000 C   0  0  0  0  0  0  0  0  0  0  0  0
   -0.7037    0.7055    0.0001 C   0  0  0  0  0  0  0  0  0  0  0  0
    0.4542    0.0545    0.0000 C   0  0  0  0  0  0  0  0  0  0  0  0
    1.7737    0.7649    0.0000 C   0  0  0  0  0  0  0  0  0  0  0  0
    0.5139   -1.4466   -0.0000 C   0  0  0  0  0  0  0  0  0  0  0  0
   -2.1518   -0.6065    0.8758 H   0  0  0  0  0  0  0  0  0  0  0  0
   -2.8435    0.7663    0.0048 H   0  0  0  0  0  0  0  0  0  0  0  0
   -2.1555   -0.5988   -0.8810 H   0  0  0  0  0  0  0  0  0  0  0  0
   -0.7072    1.7869   -0.0000 H   0  0  0  0  0  0  0  0  0  0  0  0
    2.3510    0.4839   -0.8803 H   0  0  0  0  0  0  0  0  0  0  0  0
    1.6395    1.8435    0.0003 H   0  0  0  0  0  0  0  0  0  0  0  0
    2.3512    0.4834    0.8801 H   0  0  0  0  0  0  0  0  0  0  0  0
    0.0108   -1.8488    0.8787 H   0  0  0  0  0  0  0  0  0  0  0  0
    0.0089   -1.8488   -0.8776 H   0  0  0  0  0  0  0  0  0  0  0  0
    1.5431   -1.7939   -0.0011 H   0  0  0  0  0  0  0  0  0  0  0  0
  1  2  1  0  0  0  0
  2  3  2  0  0  0  0
  3  4  1  0  0  0  0
  3  5  1  0  0  0  0
  1  6  1  0  0  0  0
  1  7  1  0  0  0  0
  1  8  1  0  0  0  0
  2  9  1  0  0  0  0
  4 10  1  0  0  0  0
  4 11  1  0  0  0  0
  4 12  1  0  0  0  0
  5 13  1  0  0  0  0
  5 14  1  0  0  0  0
  5 15  1  0  0  0  0
M  END
