 xtb: 6.7.1 (edcfbbe)
          04052509003D

 20 20  0     0  0            999 V2000
   -2.9730    1.2548   -0.0007 C   0  0  0  0  0  0  0  0  0  0  0  0
   -1.7489    0.3890    0.0005 C   0  0  0  0  0  0  0  0  0  0  0  0
   -1.8367   -0.9905    0.0004 C   0  0  0  0  0  0  0  0  0  0  0  0
   -0.6889   -1.7698    0.0001 C   0  0  0  0  0  0  0  0  0  0  0  0
    0.5628   -1.1842   -0.0002 C   0  0  0  0  0  0  0  0  0  0  0  0
    0.6667    0.2197   -0.0000 C   0  0  0  0  0  0  0  0  0  0  0  0
   -0.4876    0.9822    0.0003 C   0  0  0  0  0  0  0  0  0  0  0  0
    1.9421    0.7178   -0.0001 O   0  0  0  0  0  0  0  0  0  0  0  0
    2.1131    2.1201    0.0003 C   0  0  0  0  0  0  0  0  0  0  0  0
    1.7198   -1.9092   -0.0004 O   0  0  0  0  0  0  0  0  0  0  0  0
   -2.9743    1.9107    0.8680 H   0  0  0  0  0  0  0  0  0  0  0  0
   -2.9931    1.8802   -0.8915 H   0  0  0  0  0  0  0  0  0  0  0  0
   -3.8736    0.6480    0.0190 H   0  0  0  0  0  0  0  0  0  0  0  0
   -2.8023   -1.4721    0.0006 H   0  0  0  0  0  0  0  0  0  0  0  0
   -0.7709   -2.8468    0.0001 H   0  0  0  0  0  0  0  0  0  0  0  0
   -0.4252    2.0587    0.0004 H   0  0  0  0  0  0  0  0  0  0  0  0
    1.6764    2.5716    0.8954 H   0  0  0  0  0  0  0  0  0  0  0  0
    1.6761    2.5722   -0.8943 H   0  0  0  0  0  0  0  0  0  0  0  0
    3.1896    2.2753    0.0002 H   0  0  0  0  0  0  0  0  0  0  0  0
    1.5142   -2.8565   -0.0004 H   0  0  0  0  0  0  0  0  0  0  0  0
  1  2  1  0  0  0  0
  2  3  4  0  0  0  0
  3  4  4  0  0  0  0
  4  5  4  0  0  0  0
  5  6  4  0  0  0  0
  2  7  4  0  0  0  0
  6  7  4  0  0  0  0
  6  8  1  0  0  0  0
  8  9  1  0  0  0  0
  5 10  1  0  0  0  0
  1 11  1  0  0  0  0
  1 12  1  0  0  0  0
  1 13  1  0  0  0  0
  3 14  1  0  0  0  0
  4 15  1  0  0  0  0
  7 16  1  0  0  0  0
  9 17  1  0  0  0  0
  9 18  1  0  0  0  0
  9 19  1  0  0  0  0
 10 20  1  0  0  0  0
M  END
