 xtb: 6.7.1 (edcfbbe)
          04062518003D

 24 24  0     0  0            999 V2000
   -1.7440   -1.3787   -0.4796 C   0  0  0  0  0  0  0  0  0  0  0  0
   -1.1231   -0.4886    0.6154 C   0  0  0  0  0  0  0  0  0  0  0  0
   -1.8235   -0.3968    1.4537 H   0  0  0  0  0  0  0  0  0  0  0  0
   -0.8532    0.9389    0.0975 C   0  0  0  0  0  0  0  0  0  0  0  0
   -1.1629    0.9951   -0.9594 H   0  0  0  0  0  0  0  0  0  0  0  0
    0.6403    1.2677    0.1947 C   0  0  0  0  0  0  0  0  0  0  0  0
    0.9103    1.4033    1.2482 H   0  0  0  0  0  0  0  0  0  0  0  0
    1.4650    0.1122   -0.3835 C   0  0  0  0  0  0  0  0  0  0  0  0
    1.1735   -0.0625   -1.4326 H   0  0  0  0  0  0  0  0  0  0  0  0
    1.1820   -1.1751    0.4086 C   0  0  0  0  0  0  0  0  0  0  0  0
    1.9964   -1.3082    1.1352 H   0  0  0  0  0  0  0  0  0  0  0  0
    0.0228   -1.0898    1.2030 O   0  0  0  0  0  0  0  0  0  0  0  0
    1.1324   -2.2369   -0.4908 O   0  0  0  0  0  0  0  0  0  0  0  0
    2.8411    0.3796   -0.3084 O   0  0  0  0  0  0  0  0  0  0  0  0
    0.9570    2.4827   -0.4390 O   0  0  0  0  0  0  0  0  0  0  0  0
   -1.6284    1.8322    0.8619 O   0  0  0  0  0  0  0  0  0  0  0  0
   -2.8739   -0.7917   -1.0706 O   0  0  0  0  0  0  0  0  0  0  0  0
   -1.9835   -2.3551   -0.0423 H   0  0  0  0  0  0  0  0  0  0  0  0
   -1.0231   -1.5286   -1.2864 H   0  0  0  0  0  0  0  0  0  0  0  0
    1.1676   -3.0822   -0.0180 H   0  0  0  0  0  0  0  0  0  0  0  0
    2.9807    1.3223   -0.5014 H   0  0  0  0  0  0  0  0  0  0  0  0
    0.6997    2.4410   -1.3732 H   0  0  0  0  0  0  0  0  0  0  0  0
   -1.3626    2.7413    0.6554 H   0  0  0  0  0  0  0  0  0  0  0  0
   -3.5722   -0.6910   -0.4082 H   0  0  0  0  0  0  0  0  0  0  0  0
  1  2  1  0  0  0  0
  2  3  1  0  0  0  0
  2  4  1  0  0  0  0
  4  5  1  0  0  0  0
  4  6  1  0  0  0  0
  6  7  1  0  0  0  0
  6  8  1  0  0  0  0
  8  9  1  0  0  0  0
  8 10  1  0  0  0  0
 10 11  1  0  0  0  0
  2 12  1  0  0  0  0
 10 12  1  0  0  0  0
 10 13  1  0  0  0  0
  8 14  1  0  0  0  0
  6 15  1  0  0  0  0
  4 16  1  0  0  0  0
  1 17  1  0  0  0  0
  1 18  1  0  0  0  0
  1 19  1  0  0  0  0
 13 20  1  0  0  0  0
 14 21  1  0  0  0  0
 15 22  1  0  0  0  0
 16 23  1  0  0  0  0
 17 24  1  0  0  0  0
M  END
