 xtb: 6.7.1 (edcfbbe)
          04032522183D

 25 27  0     0  0            999 V2000
    1.7287    1.4818    0.4501 C   0  0  0  0  0  0  0  0  0  0  0  0
    0.4495    0.7802    0.9224 C   0  0  0  0  0  0  0  0  0  0  0  0
    0.2474    1.1406    1.9338 H   0  0  0  0  0  0  0  0  0  0  0  0
    0.4484   -0.7787    0.9241 C   0  0  0  0  0  0  0  0  0  0  0  0
    0.2457   -1.1367    1.9363 H   0  0  0  0  0  0  0  0  0  0  0  0
    1.7265   -1.4833    0.4533 C   0  0  0  0  0  0  0  0  0  0  0  0
    2.7781   -1.2760    1.3757 O   0  0  0  0  0  0  0  0  0  0  0  0
    3.7960   -0.0016    1.0390 S   0  0  0  0  0  0  0  0  0  0  0  0
    4.7363   -0.0012    2.1230 O   0  0  0  0  0  0  0  0  0  0  0  0
    2.7800    1.2749    1.3730 O   0  0  0  0  0  0  0  0  0  0  0  0
   -0.7712   -1.1161    0.0245 C   0  0  0  0  0  0  0  0  0  0  0  0
   -0.4368   -0.6717   -1.3872 C   0  0  0  0  0  0  0  0  0  0  0  0
   -0.4358    0.6695   -1.3886 C   0  0  0  0  0  0  0  0  0  0  0  0
   -0.7696    1.1174    0.0221 C   0  0  0  0  0  0  0  0  0  0  0  0
   -1.7618    0.0018    0.4212 C   0  0  0  0  0  0  0  0  0  0  0  0
   -3.2417    0.0018   -0.5553 Cl  0  0  0  0  0  0  0  0  0  0  0  0
   -2.2260    0.0040    2.1189 Cl  0  0  0  0  0  0  0  0  0  0  0  0
   -1.3614    2.7627    0.1669 Cl  0  0  0  0  0  0  0  0  0  0  0  0
   -0.0798    1.7379   -2.6488 Cl  0  0  0  0  0  0  0  0  0  0  0  0
   -0.0824   -1.7434   -2.6451 Cl  0  0  0  0  0  0  0  0  0  0  0  0
   -1.3655   -2.7602    0.1728 Cl  0  0  0  0  0  0  0  0  0  0  0  0
    1.5440    2.5585    0.4180 H   0  0  0  0  0  0  0  0  0  0  0  0
    2.0300    1.1429   -0.5444 H   0  0  0  0  0  0  0  0  0  0  0  0
    1.5402   -2.5598    0.4235 H   0  0  0  0  0  0  0  0  0  0  0  0
    2.0283   -1.1470   -0.5420 H   0  0  0  0  0  0  0  0  0  0  0  0
  1  2  1  0  0  0  0
  2  3  1  0  0  0  0
  2  4  1  0  0  0  0
  4  5  1  0  0  0  0
  4  6  1  0  0  0  0
  6  7  1  0  0  0  0
  7  8  1  0  0  0  0
  8  9  2  0  0  0  0
  1 10  1  0  0  0  0
  8 10  1  0  0  0  0
  4 11  1  0  0  0  0
 11 12  1  0  0  0  0
 12 13  2  0  0  0  0
  2 14  1  0  0  0  0
 13 14  1  0  0  0  0
 11 15  1  0  0  0  0
 14 15  1  0  0  0  0
 15 16  1  0  0  0  0
 15 17  1  0  0  0  0
 14 18  1  0  0  0  0
 13 19  1  0  0  0  0
 12 20  1  0  0  0  0
 11 21  1  0  0  0  0
  1 22  1  0  0  0  0
  1 23  1  0  0  0  0
  6 24  1  0  0  0  0
  6 25  1  0  0  0  0
M  END
