 xtb: 6.7.1 (edcfbbe)
          04052503093D

 19 19  0     0  0            999 V2000
   -2.4309   -0.9192   -0.8949 C   0  0  0  0  0  0  0  0  0  0  0  0
   -1.7169    0.0121    0.0462 C   0  0  0  0  0  0  0  0  0  0  0  0
   -2.3852    0.8151    0.8670 C   0  0  0  0  0  0  0  0  0  0  0  0
   -0.2427    0.0165    0.0203 C   0  0  0  0  0  0  0  0  0  0  0  0
    0.4793   -1.1748    0.0332 C   0  0  0  0  0  0  0  0  0  0  0  0
    1.8620   -1.1615    0.0272 C   0  0  0  0  0  0  0  0  0  0  0  0
    2.5481    0.0411   -0.0023 C   0  0  0  0  0  0  0  0  0  0  0  0
    1.8413    1.2322   -0.0170 C   0  0  0  0  0  0  0  0  0  0  0  0
    0.4588    1.2200   -0.0017 C   0  0  0  0  0  0  0  0  0  0  0  0
   -2.9172   -0.3398   -1.6786 H   0  0  0  0  0  0  0  0  0  0  0  0
   -1.7401   -1.6109   -1.3674 H   0  0  0  0  0  0  0  0  0  0  0  0
   -3.1995   -1.4831   -0.3711 H   0  0  0  0  0  0  0  0  0  0  0  0
   -1.8825    1.4799    1.5482 H   0  0  0  0  0  0  0  0  0  0  0  0
   -3.4618    0.8205    0.8970 H   0  0  0  0  0  0  0  0  0  0  0  0
   -0.0442   -2.1187    0.0739 H   0  0  0  0  0  0  0  0  0  0  0  0
    2.4071   -2.0938    0.0458 H   0  0  0  0  0  0  0  0  0  0  0  0
    3.6277    0.0501   -0.0133 H   0  0  0  0  0  0  0  0  0  0  0  0
    2.3698    2.1738   -0.0419 H   0  0  0  0  0  0  0  0  0  0  0  0
   -0.0901    2.1499   -0.0229 H   0  0  0  0  0  0  0  0  0  0  0  0
  1  2  1  0  0  0  0
  2  3  2  0  0  0  0
  2  4  1  0  0  0  0
  4  5  4  0  0  0  0
  5  6  4  0  0  0  0
  6  7  4  0  0  0  0
  7  8  4  0  0  0  0
  4  9  4  0  0  0  0
  8  9  4  0  0  0  0
  1 10  1  0  0  0  0
  1 11  1  0  0  0  0
  1 12  1  0  0  0  0
  3 13  1  0  0  0  0
  3 14  1  0  0  0  0
  5 15  1  0  0  0  0
  6 16  1  0  0  0  0
  7 17  1  0  0  0  0
  8 18  1  0  0  0  0
  9 19  1  0  0  0  0
M  END
