9
CONF1
C -1.1755310279 0.2411589553 -0.0000083833
O 0.0000088476 -0.5685632437 -0.0000352930
C 1.1755150394 0.2412076310 -0.0000005516
H -1.2147584379 0.8799450501 -0.8943550185
H -1.2147531699 0.8799020311 0.8943694480
H -2.0367555869 -0.4313993504 -0.0000223649
H 2.0367684715 -0.4313141134 -0.0000982335
H 1.2147460184 0.8798882477 0.8944215055
H 1.2146790618 0.8800602993 -0.8943023813
