 xtb: 6.7.1 (edcfbbe)
          04052516203D

 27 27  0     0  0            999 V2000
   -2.8607    0.6965   -0.3635 C   0  0  0  0  0  0  0  0  0  0  0  0
   -1.7170    0.2657    0.5659 C   0  0  0  0  0  0  0  0  0  0  0  0
   -2.1576    0.0118    1.5368 H   0  0  0  0  0  0  0  0  0  0  0  0
   -0.6730    1.3702    0.7540 C   0  0  0  0  0  0  0  0  0  0  0  0
    0.1751    1.5848   -0.4923 C   0  0  0  0  0  0  0  0  0  0  0  0
    0.9096    0.2963   -0.8887 C   0  0  0  0  0  0  0  0  0  0  0  0
    1.4142    0.4728   -1.8450 H   0  0  0  0  0  0  0  0  0  0  0  0
   -0.1119   -0.8280   -1.1077 C   0  0  0  0  0  0  0  0  0  0  0  0
   -1.1064   -0.9977    0.0054 C   0  0  0  0  0  0  0  0  0  0  0  0
   -1.4649   -2.0986    0.3881 O   0  0  0  0  0  0  0  0  0  0  0  0
    1.9798   -0.0487    0.1216 C   0  0  0  0  0  0  0  0  0  0  0  0
    1.8057   -0.9002    1.1199 C   0  0  0  0  0  0  0  0  0  0  0  0
    3.2827    0.6654   -0.0850 C   0  0  0  0  0  0  0  0  0  0  0  0
   -2.4902    0.9674   -1.3473 H   0  0  0  0  0  0  0  0  0  0  0  0
   -3.5763   -0.1154   -0.4749 H   0  0  0  0  0  0  0  0  0  0  0  0
   -3.3726    1.5536    0.0658 H   0  0  0  0  0  0  0  0  0  0  0  0
   -1.1845    2.2967    1.0199 H   0  0  0  0  0  0  0  0  0  0  0  0
   -0.0191    1.0968    1.5849 H   0  0  0  0  0  0  0  0  0  0  0  0
   -0.4534    1.9071   -1.3227 H   0  0  0  0  0  0  0  0  0  0  0  0
    0.8992    2.3770   -0.2996 H   0  0  0  0  0  0  0  0  0  0  0  0
   -0.6988   -0.5914   -1.9994 H   0  0  0  0  0  0  0  0  0  0  0  0
    0.3894   -1.7822   -1.2809 H   0  0  0  0  0  0  0  0  0  0  0  0
    2.5926   -1.1068    1.8262 H   0  0  0  0  0  0  0  0  0  0  0  0
    0.8870   -1.4378    1.2803 H   0  0  0  0  0  0  0  0  0  0  0  0
    3.9736    0.4558    0.7262 H   0  0  0  0  0  0  0  0  0  0  0  0
    3.7373    0.3446   -1.0213 H   0  0  0  0  0  0  0  0  0  0  0  0
    3.1263    1.7406   -0.1440 H   0  0  0  0  0  0  0  0  0  0  0  0
  1  2  1  0  0  0  0
  2  3  1  0  0  0  0
  2  4  1  0  0  0  0
  4  5  1  0  0  0  0
  5  6  1  0  0  0  0
  6  7  1  0  0  0  0
  6  8  1  0  0  0  0
  2  9  1  0  0  0  0
  8  9  1  0  0  0  0
  9 10  2  0  0  0  0
  6 11  1  0  0  0  0
 11 12  2  0  0  0  0
 11 13  1  0  0  0  0
  1 14  1  0  0  0  0
  1 15  1  0  0  0  0
  1 16  1  0  0  0  0
  4 17  1  0  0  0  0
  4 18  1  0  0  0  0
  5 19  1  0  0  0  0
  5 20  1  0  0  0  0
  8 21  1  0  0  0  0
  8 22  1  0  0  0  0
 12 23  1  0  0  0  0
 12 24  1  0  0  0  0
 13 25  1  0  0  0  0
 13 26  1  0  0  0  0
 13 27  1  0  0  0  0
M  END
