17
 xtb: 6.7.1 (edcfbbe)
C            2.21113118917220        1.02964679411167       -0.41885099480310
C            1.19034948365756       -0.07499985499158       -0.26103133182569
C            1.58687931362491       -1.11522329369601        0.76706470704643
O           -0.05016392674418        0.59000179040362        0.18743138094712
C           -1.21746201293876       -0.02225277228623       -0.07566298258699
O           -1.30916166603937       -1.07375104248462       -0.69126699240294
C           -2.38699353871317        0.72068830664460        0.48857766355549
H            2.39623171378702        1.52759739497109        0.53824726188068
H            3.15333962316585        0.60059502078735       -0.77193345967609
H            1.87665908724313        1.77248342542983       -1.14827470992075
H            0.97758610044435       -0.54404446441538       -1.22583407495674
H            1.77458201332315       -0.64121581459392        1.73592182557437
H            2.50586497634586       -1.61265394818094        0.44244255040764
H            0.80997323447994       -1.87513828683476        0.88676736025561
H           -3.20527943541508        0.70722208660454       -0.23448193587355
H           -2.13308909049967        1.74493601563005        0.76167998319413
H           -2.72408962480681        0.18705162867950        1.38431991136180
