 xtb: 6.7.1 (edcfbbe)
          04052516073D

 27 27  0     0  0            999 V2000
   -2.5349    0.4939   -1.2427 C   0  0  0  0  0  0  0  0  0  0  0  0
   -2.0279    0.4271    0.2040 C   0  0  0  0  0  0  0  0  0  0  0  0
   -2.9071    0.4751    0.8573 H   0  0  0  0  0  0  0  0  0  0  0  0
   -1.0751    1.5687    0.5502 C   0  0  0  0  0  0  0  0  0  0  0  0
    0.2551    1.4877   -0.2061 C   0  0  0  0  0  0  0  0  0  0  0  0
    0.7653    0.0422   -0.3556 C   0  0  0  0  0  0  0  0  0  0  0  0
    0.4750   -0.3376   -1.3409 H   0  0  0  0  0  0  0  0  0  0  0  0
    0.0996   -0.8806    0.6816 C   0  0  0  0  0  0  0  0  0  0  0  0
   -1.3810   -0.9195    0.4428 C   0  0  0  0  0  0  0  0  0  0  0  0
   -2.0182   -1.9564    0.4209 O   0  0  0  0  0  0  0  0  0  0  0  0
    2.2691   -0.0703   -0.2600 C   0  0  0  0  0  0  0  0  0  0  0  0
    2.9666   -0.6486   -1.2263 C   0  0  0  0  0  0  0  0  0  0  0  0
    2.9384    0.4807    0.9641 C   0  0  0  0  0  0  0  0  0  0  0  0
   -1.7080    0.4626   -1.9463 H   0  0  0  0  0  0  0  0  0  0  0  0
   -3.1896   -0.3514   -1.4426 H   0  0  0  0  0  0  0  0  0  0  0  0
   -3.0910    1.4145   -1.3968 H   0  0  0  0  0  0  0  0  0  0  0  0
   -1.5588    2.5203    0.3265 H   0  0  0  0  0  0  0  0  0  0  0  0
   -0.8857    1.5458    1.6249 H   0  0  0  0  0  0  0  0  0  0  0  0
    0.1452    1.9248   -1.1988 H   0  0  0  0  0  0  0  0  0  0  0  0
    0.9861    2.0907    0.3302 H   0  0  0  0  0  0  0  0  0  0  0  0
    0.5064   -1.8914    0.6212 H   0  0  0  0  0  0  0  0  0  0  0  0
    0.2707   -0.4992    1.6897 H   0  0  0  0  0  0  0  0  0  0  0  0
    4.0367   -0.7546   -1.1696 H   0  0  0  0  0  0  0  0  0  0  0  0
    2.5001   -1.0383   -2.1155 H   0  0  0  0  0  0  0  0  0  0  0  0
    2.3382    0.3106    1.8537 H   0  0  0  0  0  0  0  0  0  0  0  0
    3.9109    0.0170    1.1030 H   0  0  0  0  0  0  0  0  0  0  0  0
    3.0942    1.5539    0.8600 H   0  0  0  0  0  0  0  0  0  0  0  0
  1  2  1  0  0  0  0
  2  3  1  0  0  0  0
  2  4  1  0  0  0  0
  4  5  1  0  0  0  0
  5  6  1  0  0  0  0
  6  7  1  0  0  0  0
  6  8  1  0  0  0  0
  2  9  1  0  0  0  0
  8  9  1  0  0  0  0
  9 10  2  0  0  0  0
  6 11  1  0  0  0  0
 11 12  2  0  0  0  0
 11 13  1  0  0  0  0
  1 14  1  0  0  0  0
  1 15  1  0  0  0  0
  1 16  1  0  0  0  0
  4 17  1  0  0  0  0
  4 18  1  0  0  0  0
  5 19  1  0  0  0  0
  5 20  1  0  0  0  0
  8 21  1  0  0  0  0
  8 22  1  0  0  0  0
 12 23  1  0  0  0  0
 12 24  1  0  0  0  0
 13 25  1  0  0  0  0
 13 26  1  0  0  0  0
 13 27  1  0  0  0  0
M  END
