24
 xtb: 6.7.1 (edcfbbe)
C           -2.58809328836408       -0.60758026970785       -0.31980525814184
C           -1.20944716238443       -0.26832512510432        0.21004295834473
H           -1.22896725240314       -0.24062178249261        1.31174432446825
C           -0.69463072237161        1.06751983185689       -0.32478324917977
H           -0.71545371646344        1.04422685102040       -1.42609515242808
C            0.73866255667043        1.29012893362614        0.13960273497212
H            0.73599458521636        1.41044303428396        1.23455863144294
C            1.61984339217981        0.10079474604219       -0.21635842128608
H            1.70342863640653        0.01378337484421       -1.31004914534326
C            0.98700282601651       -1.17989927959091        0.31976579270393
H            0.91904670649339       -1.15279157875358        1.41983127909430
O           -0.32939903365904       -1.31654770416267       -0.23153512966683
O            1.75424342778166       -2.26974560436920       -0.11694860828500
O            2.90140037229318        0.33043208555596        0.37489317160005
O            1.20112615407932        2.49490226119583       -0.48328164322276
O           -1.55421989279020        2.09916119966567        0.16845705062642
O           -3.09436024918249       -1.82242008030691        0.24516886445670
H           -2.54894743893986       -0.67305412036599       -1.41692234220089
H           -3.28891871479150        0.18279938897751       -0.04193374593284
H            1.55920931538854       -3.02703658697652        0.45120555714870
H            3.51216849984884       -0.32370168073730        0.01030290549563
H            2.03407495684823        2.74232607643296       -0.06035430046437
H           -1.16749847655680        2.94295729725864       -0.10345012123677
H           -2.49246832659838       -2.53133590559162       -0.01792302051507
