 xtb: 6.7.1 (edcfbbe)
          04042518433D

 14 13  0     0  0            999 V2000
    1.5710   -0.0342    0.5637 C   0  0  0  0  0  0  0  0  0  0  0  0
    0.6723    0.3645   -0.6016 C   0  0  0  0  0  0  0  0  0  0  0  0
   -0.6723   -0.3645   -0.6016 C   0  0  0  0  0  0  0  0  0  0  0  0
   -1.5711    0.0342    0.5637 C   0  0  0  0  0  0  0  0  0  0  0  0
    2.5388    0.4542    0.4771 H   0  0  0  0  0  0  0  0  0  0  0  0
    1.1297    0.2556    1.5135 H   0  0  0  0  0  0  0  0  0  0  0  0
    1.7289   -1.1106    0.5701 H   0  0  0  0  0  0  0  0  0  0  0  0
    0.4959    1.4422   -0.5714 H   0  0  0  0  0  0  0  0  0  0  0  0
    1.1894    0.1406   -1.5378 H   0  0  0  0  0  0  0  0  0  0  0  0
   -1.1894   -0.1405   -1.5378 H   0  0  0  0  0  0  0  0  0  0  0  0
   -0.4959   -1.4421   -0.5715 H   0  0  0  0  0  0  0  0  0  0  0  0
   -2.5388   -0.4544    0.4772 H   0  0  0  0  0  0  0  0  0  0  0  0
   -1.7291    1.1105    0.5700 H   0  0  0  0  0  0  0  0  0  0  0  0
   -1.1297   -0.2555    1.5135 H   0  0  0  0  0  0  0  0  0  0  0  0
  1  2  1  0  0  0  0
  2  3  1  0  0  0  0
  3  4  1  0  0  0  0
  1  5  1  0  0  0  0
  1  6  1  0  0  0  0
  1  7  1  0  0  0  0
  2  8  1  0  0  0  0
  2  9  1  0  0  0  0
  3 10  1  0  0  0  0
  3 11  1  0  0  0  0
  4 12  1  0  0  0  0
  4 13  1  0  0  0  0
  4 14  1  0  0  0  0
M  END
