 xtb: 6.7.1 (edcfbbe)
          04062518003D

 24 24  0     0  0            999 V2000
   -2.5577   -0.6827   -0.3513 C   0  0  0  0  0  0  0  0  0  0  0  0
   -1.1735   -0.3177    0.1791 C   0  0  0  0  0  0  0  0  0  0  0  0
   -1.2270   -0.2599    1.2771 H   0  0  0  0  0  0  0  0  0  0  0  0
   -0.6913    1.0314   -0.3701 C   0  0  0  0  0  0  0  0  0  0  0  0
   -0.6591    0.9626   -1.4711 H   0  0  0  0  0  0  0  0  0  0  0  0
    0.7283    1.3235    0.1518 C   0  0  0  0  0  0  0  0  0  0  0  0
    0.6910    1.4471    1.2406 H   0  0  0  0  0  0  0  0  0  0  0  0
    1.6562    0.1512   -0.1758 C   0  0  0  0  0  0  0  0  0  0  0  0
    1.7662    0.0626   -1.2692 H   0  0  0  0  0  0  0  0  0  0  0  0
    1.0195   -1.1604    0.3247 C   0  0  0  0  0  0  0  0  0  0  0  0
    0.9639   -1.1236    1.4338 H   0  0  0  0  0  0  0  0  0  0  0  0
   -0.2716   -1.3381   -0.2019 O   0  0  0  0  0  0  0  0  0  0  0  0
    1.8152   -2.2052   -0.1034 O   0  0  0  0  0  0  0  0  0  0  0  0
    2.9005    0.3691    0.4321 O   0  0  0  0  0  0  0  0  0  0  0  0
    1.1860    2.5557   -0.3427 O   0  0  0  0  0  0  0  0  0  0  0  0
   -1.5846    2.0395    0.0210 O   0  0  0  0  0  0  0  0  0  0  0  0
   -3.1004   -1.6951    0.4633 O   0  0  0  0  0  0  0  0  0  0  0  0
   -2.4474   -1.0273   -1.3859 H   0  0  0  0  0  0  0  0  0  0  0  0
   -3.1744    0.2227   -0.3190 H   0  0  0  0  0  0  0  0  0  0  0  0
    1.3378   -3.0426    0.0049 H   0  0  0  0  0  0  0  0  0  0  0  0
    3.4623   -0.4066    0.2824 H   0  0  0  0  0  0  0  0  0  0  0  0
    1.5159    2.4521   -1.2472 H   0  0  0  0  0  0  0  0  0  0  0  0
   -1.1249    2.8931   -0.0467 H   0  0  0  0  0  0  0  0  0  0  0  0
   -3.9693   -1.9466    0.1193 H   0  0  0  0  0  0  0  0  0  0  0  0
  1  2  1  0  0  0  0
  2  3  1  0  0  0  0
  2  4  1  0  0  0  0
  4  5  1  0  0  0  0
  4  6  1  0  0  0  0
  6  7  1  0  0  0  0
  6  8  1  0  0  0  0
  8  9  1  0  0  0  0
  8 10  1  0  0  0  0
 10 11  1  0  0  0  0
  2 12  1  0  0  0  0
 10 12  1  0  0  0  0
 10 13  1  0  0  0  0
  8 14  1  0  0  0  0
  6 15  1  0  0  0  0
  4 16  1  0  0  0  0
  1 17  1  0  0  0  0
  1 18  1  0  0  0  0
  1 19  1  0  0  0  0
 13 20  1  0  0  0  0
 14 21  1  0  0  0  0
 15 22  1  0  0  0  0
 16 23  1  0  0  0  0
 17 24  1  0  0  0  0
M  END
