 xtb: 6.7.1 (edcfbbe)
          04062518003D

 24 24  0     0  0            999 V2000
   -2.1564   -0.8642   -0.3041 C   0  0  0  0  0  0  0  0  0  0  0  0
   -1.1866   -0.3252    0.7693 C   0  0  0  0  0  0  0  0  0  0  0  0
   -1.7489   -0.3636    1.7114 H   0  0  0  0  0  0  0  0  0  0  0  0
   -0.7439    1.1366    0.5570 C   0  0  0  0  0  0  0  0  0  0  0  0
   -1.5923    1.7051    0.1487 H   0  0  0  0  0  0  0  0  0  0  0  0
    0.4339    1.2871   -0.4207 C   0  0  0  0  0  0  0  0  0  0  0  0
    0.8527    2.2907   -0.2471 H   0  0  0  0  0  0  0  0  0  0  0  0
    1.5476    0.2795   -0.0787 C   0  0  0  0  0  0  0  0  0  0  0  0
    2.2512    0.2024   -0.9156 H   0  0  0  0  0  0  0  0  0  0  0  0
    1.0227   -1.1563    0.1835 C   0  0  0  0  0  0  0  0  0  0  0  0
    1.8075   -1.6857    0.7427 H   0  0  0  0  0  0  0  0  0  0  0  0
   -0.0857   -1.1896    1.0441 O   0  0  0  0  0  0  0  0  0  0  0  0
    0.8403   -1.8742   -0.9938 O   0  0  0  0  0  0  0  0  0  0  0  0
    2.2990    0.7426    1.0160 O   0  0  0  0  0  0  0  0  0  0  0  0
   -0.0505    1.1861   -1.7362 O   0  0  0  0  0  0  0  0  0  0  0  0
   -0.3015    1.7057    1.7695 O   0  0  0  0  0  0  0  0  0  0  0  0
   -1.6388   -0.9861   -1.6060 O   0  0  0  0  0  0  0  0  0  0  0  0
   -3.0428   -0.2187   -0.3072 H   0  0  0  0  0  0  0  0  0  0  0  0
   -2.4533   -1.8738   -0.0104 H   0  0  0  0  0  0  0  0  0  0  0  0
   -0.0490   -1.6727   -1.3771 H   0  0  0  0  0  0  0  0  0  0  0  0
    1.6896    0.9666    1.7396 H   0  0  0  0  0  0  0  0  0  0  0  0
    0.6632    1.3636   -2.3650 H   0  0  0  0  0  0  0  0  0  0  0  0
   -1.0253    1.7346    2.4114 H   0  0  0  0  0  0  0  0  0  0  0  0
   -1.3215   -0.1123   -1.9120 H   0  0  0  0  0  0  0  0  0  0  0  0
  1  2  1  0  0  0  0
  2  3  1  0  0  0  0
  2  4  1  0  0  0  0
  4  5  1  0  0  0  0
  4  6  1  0  0  0  0
  6  7  1  0  0  0  0
  6  8  1  0  0  0  0
  8  9  1  0  0  0  0
  8 10  1  0  0  0  0
 10 11  1  0  0  0  0
  2 12  1  0  0  0  0
 10 12  1  0  0  0  0
 10 13  1  0  0  0  0
  8 14  1  0  0  0  0
  6 15  1  0  0  0  0
  4 16  1  0  0  0  0
  1 17  1  0  0  0  0
  1 18  1  0  0  0  0
  1 19  1  0  0  0  0
 13 20  1  0  0  0  0
 14 21  1  0  0  0  0
 15 22  1  0  0  0  0
 16 23  1  0  0  0  0
 17 24  1  0  0  0  0
M  END
