 xtb: 6.7.1 (edcfbbe)
          04032521063D

  4  3  0     0  0            999 V2000
   -0.0000   -0.0000   -0.0668 N   0  0  0  0  0  0  0  0  0  0  0  0
   -0.6981    0.6298    0.3096 H   0  0  0  0  0  0  0  0  0  0  0  0
    0.8944    0.2896    0.3096 H   0  0  0  0  0  0  0  0  0  0  0  0
   -0.1964   -0.9195    0.3095 H   0  0  0  0  0  0  0  0  0  0  0  0
  1  2  1  0  0  0  0
  1  3  1  0  0  0  0
  1  4  1  0  0  0  0
M  END
