14
 xtb: 6.7.1 (edcfbbe)
C            1.43129850233848        0.94256157308075       -0.27153549910410
C            0.74777495821562       -0.35153526458655        0.07100615118945
O            1.41327461787616       -1.37364111081956        0.26904256028414
C           -0.71525289344112       -0.39428812497233        0.21260160087075
C           -1.50029034469010        0.85873434706302        0.57423126094887
C           -1.60494890558334        0.32317650519033       -0.80320837713643
H            1.59642623751949        1.49186965974456        0.66383225329697
H            2.40330890120257        0.73706994474138       -0.72272552729871
H            0.84207688043482        1.58730231283051       -0.92674285739032
H           -1.09240310295363       -1.33943962659950        0.58887114141232
H           -2.33107758222679        0.70423124713100        1.25391919358504
H           -0.93275841077711        1.76954492565398        0.72980549722743
H           -2.50268580004891       -0.21670751929911       -1.08350634360146
H           -1.11109614161697        0.85609894939757       -1.60796290583206
