15
CONF1
C 1.2003991529 -1.2589121169 0.0352602056
C 0.3986831910 0.0000606216 -0.3184078551
C 1.1995956879 1.2595371175 0.0353273448
C -0.9149605445 -0.0003451472 0.4068730515
C -2.1149270163 -0.0003351598 -0.1711919572
H 0.6520055749 -2.1683373459 -0.2309582985
H 1.4103671484 -1.2903777680 1.1110417011
H 2.1584813904 -1.2675344760 -0.4958953285
H 0.1980707163 0.0000366591 -1.3978236317
H 1.4099533771 1.2908415082 1.1110370843
H 2.1574592322 1.2690399846 -0.4962095556
H 0.6503946456 2.1686168519 -0.2304112270
H -0.8436440475 -0.0005708937 1.4973186372
H -3.0296850613 -0.0005651305 0.4156566690
H -2.2184579857 -0.0001178687 -1.2548721461
15
CONF4
C 1.2043909813 -1.3186977245 0.0043160405
C 0.4878416335 -0.0226783432 -0.4066323774
C 0.9583187378 1.1533826613 0.4427808707
C -0.9987136359 -0.2438929274 -0.3754065167
C -1.8969537428 0.4457955403 0.3278158155
H 0.8865415845 -2.1630746955 -0.6161158973
H 0.9820870427 -1.5622109585 1.0496732163
H 2.2889475096 -1.2093373752 -0.0984764735
H 0.7575017274 0.1765689795 -1.4553055828
H 2.0428507090 1.2712657011 0.3549320370
H 0.4905114564 2.0925593927 0.1302354957
H 0.7230708332 0.9914725276 1.5009448566
H -1.3454566058 -1.0737405202 -0.9935294374
H -2.9520536050 0.1906593040 0.2843874565
H -1.6194967865 1.2809946564 0.9649529490
15
CONF3
C 1.3380927759 -1.1583678355 0.3245653471
C 0.4588723496 -0.1644855707 -0.4507713108
C 0.8899784056 1.2727838623 -0.1784387766
C -0.9889291700 -0.4349694303 -0.1496867219
C -1.8833608150 0.4306754550 0.3268219981
H 1.2436986504 -0.9905731963 1.4034384569
H 2.3909365712 -1.0364343045 0.0499931783
H 1.0486612123 -2.1933241364 0.1145493290
H 0.6039172536 -0.3738116173 -1.5217659633
H 0.7658435513 1.5242929544 0.8810367414
H 1.9462009441 1.4043478931 -0.4321268887
H 0.3094274286 1.9899523747 -0.7677067520
H -1.3073911921 -1.4611097062 -0.3391745678
H -2.9075937054 0.1221972127 0.5189533452
H -1.6349260001 1.4667715120 0.5392794232
15
CONF2
C 1.2862195187 -1.2199494362 0.2410527947
C 0.4812026245 -0.0969008976 -0.4320138719
C 0.9086434428 1.2693653522 0.0940542327
C -0.9881837210 -0.3785336319 -0.2832784835
C -1.8972406628 0.4014896912 0.3012439884
H 2.3595831242 -1.0771339192 0.0774268264
H 1.0089095521 -2.2024607372 -0.1552333525
H 1.1020023207 -1.2248375536 1.3216902394
H 0.7057371201 -0.1400315153 -1.5088890234
H 0.3664826935 2.0826462763 -0.3994997779
H 0.7310869636 1.3480115076 1.1729750075
H 1.9784151048 1.4214896031 -0.0807763491
H -1.3080848960 -1.3404305101 -0.6882910953
H -2.9355888412 0.0888859840 0.3734041984
H -1.6440711838 1.3671890306 0.7308298692
