 xtb: 6.7.1 (edcfbbe)
          04042513153D

 12 11  0     0  0            999 V2000
   -1.7190   -0.5658   -0.6428 C   0  0  0  0  0  0  0  0  0  0  0  0
   -1.1979    0.0544    0.6477 C   0  0  0  0  0  0  0  0  0  0  0  0
    0.0495    0.9167    0.4020 C   0  0  0  0  0  0  0  0  0  0  0  0
    1.1648    0.1225   -0.0284 C   0  0  0  0  0  0  0  0  0  0  0  0
    2.0565   -0.5162   -0.3610 N   0  0  0  0  0  0  0  0  0  0  0  0
   -2.5957   -1.1758   -0.4415 H   0  0  0  0  0  0  0  0  0  0  0  0
   -1.9948    0.2071   -1.3570 H   0  0  0  0  0  0  0  0  0  0  0  0
   -0.9581   -1.1972   -1.0974 H   0  0  0  0  0  0  0  0  0  0  0  0
   -1.9696    0.6872    1.0882 H   0  0  0  0  0  0  0  0  0  0  0  0
   -0.9564   -0.7342    1.3631 H   0  0  0  0  0  0  0  0  0  0  0  0
    0.3419    1.4322    1.3202 H   0  0  0  0  0  0  0  0  0  0  0  0
   -0.1555    1.6639   -0.3689 H   0  0  0  0  0  0  0  0  0  0  0  0
  1  2  1  0  0  0  0
  2  3  1  0  0  0  0
  3  4  1  0  0  0  0
  4  5  3  0  0  0  0
  1  6  1  0  0  0  0
  1  7  1  0  0  0  0
  1  8  1  0  0  0  0
  2  9  1  0  0  0  0
  2 10  1  0  0  0  0
  3 11  1  0  0  0  0
  3 12  1  0  0  0  0
M  END
