 xtb: 6.7.1 (edcfbbe)
          04032521113D

 22 24  0     0  0            999 V2000
    5.1525    0.6916    0.0008 C   0  0  0  0  0  0  0  0  0  0  0  0
    5.1524   -0.6917    0.0007 C   0  0  0  0  0  0  0  0  0  0  0  0
    3.9546   -1.3903    0.0004 C   0  0  0  0  0  0  0  0  0  0  0  0
    2.7583   -0.6957    0.0003 C   0  0  0  0  0  0  0  0  0  0  0  0
    2.7583    0.6956    0.0004 C   0  0  0  0  0  0  0  0  0  0  0  0
    3.9546    1.3902    0.0006 C   0  0  0  0  0  0  0  0  0  0  0  0
    1.5777    1.4250    0.0002 O   0  0  0  0  0  0  0  0  0  0  0  0
    0.4306    0.7002    0.0000 C   0  0  0  0  0  0  0  0  0  0  0  0
    0.4306   -0.7002   -0.0001 C   0  0  0  0  0  0  0  0  0  0  0  0
   -0.7793   -1.3868   -0.0003 C   0  0  0  0  0  0  0  0  0  0  0  0
   -1.9902   -0.6946   -0.0004 C   0  0  0  0  0  0  0  0  0  0  0  0
   -1.9902    0.6946   -0.0002 C   0  0  0  0  0  0  0  0  0  0  0  0
   -0.7793    1.3868   -0.0000 C   0  0  0  0  0  0  0  0  0  0  0  0
   -0.7527    3.1037    0.0001 Cl  0  0  0  0  0  0  0  0  0  0  0  0
   -3.4712    1.5605   -0.0003 Cl  0  0  0  0  0  0  0  0  0  0  0  0
   -3.4712   -1.5604   -0.0006 Cl  0  0  0  0  0  0  0  0  0  0  0  0
   -0.7527   -3.1037   -0.0004 Cl  0  0  0  0  0  0  0  0  0  0  0  0
    1.5776   -1.4250   -0.0000 O   0  0  0  0  0  0  0  0  0  0  0  0
    6.0824    1.2357    0.0010 H   0  0  0  0  0  0  0  0  0  0  0  0
    6.0824   -1.2357    0.0008 H   0  0  0  0  0  0  0  0  0  0  0  0
    3.9241   -2.4670    0.0003 H   0  0  0  0  0  0  0  0  0  0  0  0
    3.9241    2.4669    0.0007 H   0  0  0  0  0  0  0  0  0  0  0  0
  1  2  4  0  0  0  0
  2  3  4  0  0  0  0
  3  4  4  0  0  0  0
  4  5  4  0  0  0  0
  1  6  4  0  0  0  0
  5  6  4  0  0  0  0
  5  7  1  0  0  0  0
  7  8  1  0  0  0  0
  8  9  4  0  0  0  0
  9 10  4  0  0  0  0
 10 11  4  0  0  0  0
 11 12  4  0  0  0  0
  8 13  4  0  0  0  0
 12 13  4  0  0  0  0
 13 14  1  0  0  0  0
 12 15  1  0  0  0  0
 11 16  1  0  0  0  0
 10 17  1  0  0  0  0
  4 18  1  0  0  0  0
  9 18  1  0  0  0  0
  1 19  1  0  0  0  0
  2 20  1  0  0  0  0
  3 21  1  0  0  0  0
  6 22  1  0  0  0  0
M  END
