31
 xtb: 6.7.1 (edcfbbe)
C            3.74375565520364        0.29978603316185        0.16684686360020
C            2.31131508061748        0.20164539196859       -0.34893768784550
H            2.34025983881051        0.04765134949376       -1.43838352107990
C            1.52091171256097        1.48081558449320       -0.07541042060227
C            0.07216314982803        1.37070939155790       -0.54858885016734
C           -0.66786345911377        0.19609011535917        0.11514476283696
H           -0.62732535761456        0.35837509787315        1.20536548871514
C            0.12577443584714       -1.08447844220694       -0.19135555091262
H            0.10440648773651       -1.24141022914318       -1.27894991455069
C            1.57529233503672       -0.98649894229564        0.27388998586202
O           -0.48398876294524       -2.27723679310481        0.35281281663068
C           -2.16216185751138        0.06428686179907       -0.29838393780794
C           -3.01397947211341       -0.47078048344619        0.85831908627974
C           -2.79518437148871        1.36869049341277       -0.79312863095716
H            3.75149687215282        0.45956395876348        1.25205551896560
H            4.30700766894305       -0.61668052924901       -0.04146207407497
H            4.27575016927401        1.13646202870044       -0.29945493103610
H            1.53576967818483        1.67963623557889        1.00663764663504
H            2.00951199425900        2.33365635563131       -0.56295013857584
H           -0.45063996674704        2.30753565474987       -0.33492265873589
H            0.05441193268193        1.23948113932005       -1.64023660784687
H            1.58395287393613       -0.88196514216585        1.37006713029563
H            2.09112800728623       -1.92375350478458        0.03085221520645
H           -0.49556506753612       -2.17463258545434        1.31487406615000
H           -2.21044421073873       -0.65783159328218       -1.12657952254916
H           -4.04570839137426       -0.64557479158121        0.53299748479894
H           -3.04290672315228        0.26423054498703        1.67228268898281
H           -2.62565245575905       -1.40677031112279        1.26600179644515
H           -2.30331003863211        1.76406628214491       -1.68593163028781
H           -2.76694866500651        2.14227641191550       -0.01692250119182
H           -3.84726367921350        1.19338283799879       -1.04431074988257
