 xtb: 6.7.1 (edcfbbe)
          04062518003D

 24 24  0     0  0            999 V2000
   -1.7042   -1.3747   -0.5079 C   0  0  0  0  0  0  0  0  0  0  0  0
   -1.1235   -0.4995    0.6228 C   0  0  0  0  0  0  0  0  0  0  0  0
   -1.8443   -0.4642    1.4480 H   0  0  0  0  0  0  0  0  0  0  0  0
   -0.8704    0.9529    0.1418 C   0  0  0  0  0  0  0  0  0  0  0  0
   -1.2180    1.0395   -0.8949 H   0  0  0  0  0  0  0  0  0  0  0  0
    0.6279    1.2657    0.2064 C   0  0  0  0  0  0  0  0  0  0  0  0
    0.9400    1.3663    1.2539 H   0  0  0  0  0  0  0  0  0  0  0  0
    1.4226    0.1040   -0.4125 C   0  0  0  0  0  0  0  0  0  0  0  0
    1.0788   -0.0799   -1.4429 H   0  0  0  0  0  0  0  0  0  0  0  0
    1.1848   -1.1705    0.4129 C   0  0  0  0  0  0  0  0  0  0  0  0
    2.0089   -1.2631    1.1349 H   0  0  0  0  0  0  0  0  0  0  0  0
    0.0287   -1.0890    1.2147 O   0  0  0  0  0  0  0  0  0  0  0  0
    1.1519   -2.2577   -0.4542 O   0  0  0  0  0  0  0  0  0  0  0  0
    2.7985    0.3806   -0.4109 O   0  0  0  0  0  0  0  0  0  0  0  0
    0.9714    2.4835   -0.4030 O   0  0  0  0  0  0  0  0  0  0  0  0
   -1.6404    1.8912    0.8495 O   0  0  0  0  0  0  0  0  0  0  0  0
   -2.8261   -0.7907   -1.1161 O   0  0  0  0  0  0  0  0  0  0  0  0
   -1.9402   -2.3645   -0.0995 H   0  0  0  0  0  0  0  0  0  0  0  0
   -0.9614   -1.4982   -1.2987 H   0  0  0  0  0  0  0  0  0  0  0  0
    1.2205   -3.0884    0.0403 H   0  0  0  0  0  0  0  0  0  0  0  0
    2.9138    1.3240   -0.6192 H   0  0  0  0  0  0  0  0  0  0  0  0
    0.4995    2.5796   -1.2432 H   0  0  0  0  0  0  0  0  0  0  0  0
   -1.3133    1.9744    1.7569 H   0  0  0  0  0  0  0  0  0  0  0  0
   -3.5516   -0.7312   -0.4783 H   0  0  0  0  0  0  0  0  0  0  0  0
  1  2  1  0  0  0  0
  2  3  1  0  0  0  0
  2  4  1  0  0  0  0
  4  5  1  0  0  0  0
  4  6  1  0  0  0  0
  6  7  1  0  0  0  0
  6  8  1  0  0  0  0
  8  9  1  0  0  0  0
  8 10  1  0  0  0  0
 10 11  1  0  0  0  0
  2 12  1  0  0  0  0
 10 12  1  0  0  0  0
 10 13  1  0  0  0  0
  8 14  1  0  0  0  0
  6 15  1  0  0  0  0
  4 16  1  0  0  0  0
  1 17  1  0  0  0  0
  1 18  1  0  0  0  0
  1 19  1  0  0  0  0
 13 20  1  0  0  0  0
 14 21  1  0  0  0  0
 15 22  1  0  0  0  0
 16 23  1  0  0  0  0
 17 24  1  0  0  0  0
M  END
