 xtb: 6.7.1 (edcfbbe)
          04032521143D

 18 18  0     0  0            999 V2000
   -2.0838   -0.1031   -0.3599 C   0  0  0  0  0  0  0  0  0  0  0  0
   -0.8061    0.0065    0.4654 C   0  0  0  0  0  0  0  0  0  0  0  0
    0.1269   -1.2088    0.2685 C   0  0  0  0  0  0  0  0  0  0  0  0
    1.3602   -0.6721   -0.4599 C   0  0  0  0  0  0  0  0  0  0  0  0
    1.4810    0.7544    0.0655 C   0  0  0  0  0  0  0  0  0  0  0  0
    0.0320    1.2361    0.0636 C   0  0  0  0  0  0  0  0  0  0  0  0
   -1.8449   -0.2239   -1.4144 H   0  0  0  0  0  0  0  0  0  0  0  0
   -2.6742   -0.9586   -0.0391 H   0  0  0  0  0  0  0  0  0  0  0  0
   -2.6886    0.7937   -0.2435 H   0  0  0  0  0  0  0  0  0  0  0  0
   -1.0866    0.0830    1.5199 H   0  0  0  0  0  0  0  0  0  0  0  0
    0.4212   -1.6157    1.2366 H   0  0  0  0  0  0  0  0  0  0  0  0
   -0.3628   -2.0032   -0.2929 H   0  0  0  0  0  0  0  0  0  0  0  0
    2.2494   -1.2711   -0.2688 H   0  0  0  0  0  0  0  0  0  0  0  0
    1.1830   -0.6521   -1.5363 H   0  0  0  0  0  0  0  0  0  0  0  0
    1.8730    0.7421    1.0839 H   0  0  0  0  0  0  0  0  0  0  0  0
    2.1295    1.3786   -0.5476 H   0  0  0  0  0  0  0  0  0  0  0  0
   -0.1271    2.0778    0.7362 H   0  0  0  0  0  0  0  0  0  0  0  0
   -0.2436    1.5521   -0.9439 H   0  0  0  0  0  0  0  0  0  0  0  0
  1  2  1  0  0  0  0
  2  3  1  0  0  0  0
  3  4  1  0  0  0  0
  4  5  1  0  0  0  0
  2  6  1  0  0  0  0
  5  6  1  0  0  0  0
  1  7  1  0  0  0  0
  1  8  1  0  0  0  0
  1  9  1  0  0  0  0
  2 10  1  0  0  0  0
  3 11  1  0  0  0  0
  3 12  1  0  0  0  0
  4 13  1  0  0  0  0
  4 14  1  0  0  0  0
  5 15  1  0  0  0  0
  5 16  1  0  0  0  0
  6 17  1  0  0  0  0
  6 18  1  0  0  0  0
M  END
