 xtb: 6.7.1 (edcfbbe)
          04032521053D

  9  8  0     0  0            999 V2000
    0.2620   -0.5435    0.0001 C   0  0  0  0  0  0  0  0  0  0  0  0
    1.3994    0.1505   -0.0007 C   0  0  0  0  0  0  0  0  0  0  0  0
    2.6008   -0.3698   -0.0000 F   0  0  0  0  0  0  0  0  0  0  0  0
    1.4384    1.4622   -0.0019 F   0  0  0  0  0  0  0  0  0  0  0  0
   -1.1069    0.1054    0.0000 C   0  0  0  0  0  0  0  0  0  0  0  0
   -1.2947    0.8766    1.0790 F   0  0  0  0  0  0  0  0  0  0  0  0
   -1.2839    0.8982   -1.0648 F   0  0  0  0  0  0  0  0  0  0  0  0
   -2.0728   -0.8050   -0.0138 F   0  0  0  0  0  0  0  0  0  0  0  0
    0.2617   -1.8802    0.0021 F   0  0  0  0  0  0  0  0  0  0  0  0
  1  2  2  0  0  0  0
  2  3  1  0  0  0  0
  2  4  1  0  0  0  0
  1  5  1  0  0  0  0
  5  6  1  0  0  0  0
  5  7  1  0  0  0  0
  5  8  1  0  0  0  0
  1  9  1  0  0  0  0
M  END
