15
 xtb: 6.7.1 (edcfbbe)
C           -1.29752798626277       -0.93175455731049       -0.17830389140705
C           -0.42186829066210        0.31173779162235       -0.32621750725561
C           -1.11462937656173        1.53991477958062        0.26492441909454
C            0.93189233593575        0.12969511518207        0.35526033617845
O            1.71961312019237       -0.93988523409901       -0.20236596070933
H           -1.49577758280732       -1.13831023038663        0.88086213591199
H           -0.82890730386378       -1.81930049054007       -0.61754011256565
H           -2.26051554478837       -0.78922204457935       -0.67952594076408
H           -0.23561350721270        0.49060327436713       -1.39441398810424
H           -0.50420323223679        2.44136776254427        0.14352859613819
H           -1.30165342602130        1.39915298432436        1.33632986286745
H           -2.07889883324569        1.71649826245741       -0.22201422370940
H            1.53502886623137        1.03529869295208        0.23043416066225
H            0.78436502988523       -0.03382814243283        1.43400684553500
H            1.29671825820111       -1.77227609715289        0.04187088110880
