 xtb: 6.7.1 (edcfbbe)
          04062511443D

 27 27  0     0  0            999 V2000
    3.7093   -0.1533    0.0829 C   0  0  0  0  0  0  0  0  0  0  0  0
    2.2254   -0.1800   -0.0279 C   0  0  0  0  0  0  0  0  0  0  0  0
    1.4662    0.9005    0.2083 C   0  0  0  0  0  0  0  0  0  0  0  0
    0.0194    0.9375    0.0642 C   0  0  0  0  0  0  0  0  0  0  0  0
   -0.6062    1.9675    0.2975 O   0  0  0  0  0  0  0  0  0  0  0  0
   -0.6285   -0.3371   -0.4494 C   0  0  0  0  0  0  0  0  0  0  0  0
   -0.5063   -0.2891   -1.5415 H   0  0  0  0  0  0  0  0  0  0  0  0
    0.1553   -1.5518    0.0536 C   0  0  0  0  0  0  0  0  0  0  0  0
    1.6018   -1.4799   -0.4207 C   0  0  0  0  0  0  0  0  0  0  0  0
   -2.1393   -0.4570   -0.1643 C   0  0  0  0  0  0  0  0  0  0  0  0
   -2.4706   -0.2602    1.3138 C   0  0  0  0  0  0  0  0  0  0  0  0
   -2.9425    0.5194   -1.0232 C   0  0  0  0  0  0  0  0  0  0  0  0
    4.1564   -0.5468   -0.8280 H   0  0  0  0  0  0  0  0  0  0  0  0
    4.0271   -0.7936    0.9046 H   0  0  0  0  0  0  0  0  0  0  0  0
    4.0766    0.8533    0.2592 H   0  0  0  0  0  0  0  0  0  0  0  0
    1.9143    1.8383    0.5088 H   0  0  0  0  0  0  0  0  0  0  0  0
    0.1355   -1.5714    1.1449 H   0  0  0  0  0  0  0  0  0  0  0  0
   -0.3155   -2.4656   -0.3114 H   0  0  0  0  0  0  0  0  0  0  0  0
    2.1811   -2.3096   -0.0136 H   0  0  0  0  0  0  0  0  0  0  0  0
    1.6337   -1.5622   -1.5121 H   0  0  0  0  0  0  0  0  0  0  0  0
   -2.4345   -1.4756   -0.4461 H   0  0  0  0  0  0  0  0  0  0  0  0
   -2.2004    0.7445    1.6302 H   0  0  0  0  0  0  0  0  0  0  0  0
   -1.9391   -0.9770    1.9346 H   0  0  0  0  0  0  0  0  0  0  0  0
   -3.5375   -0.3931    1.4757 H   0  0  0  0  0  0  0  0  0  0  0  0
   -4.0063    0.4002   -0.8328 H   0  0  0  0  0  0  0  0  0  0  0  0
   -2.7602    0.3430   -2.0814 H   0  0  0  0  0  0  0  0  0  0  0  0
   -2.6624    1.5430   -0.7884 H   0  0  0  0  0  0  0  0  0  0  0  0
  1  2  1  0  0  0  0
  2  3  2  0  0  0  0
  3  4  1  0  0  0  0
  4  5  2  0  0  0  0
  4  6  1  0  0  0  0
  6  7  1  0  0  0  0
  6  8  1  0  0  0  0
  2  9  1  0  0  0  0
  8  9  1  0  0  0  0
  6 10  1  0  0  0  0
 10 11  1  0  0  0  0
 10 12  1  0  0  0  0
  1 13  1  0  0  0  0
  1 14  1  0  0  0  0
  1 15  1  0  0  0  0
  3 16  1  0  0  0  0
  8 17  1  0  0  0  0
  8 18  1  0  0  0  0
  9 19  1  0  0  0  0
  9 20  1  0  0  0  0
 10 21  1  0  0  0  0
 11 22  1  0  0  0  0
 11 23  1  0  0  0  0
 11 24  1  0  0  0  0
 12 25  1  0  0  0  0
 12 26  1  0  0  0  0
 12 27  1  0  0  0  0
M  END
