26
CONF1
C -4.0536573436 -0.3905969144 -0.0031451688
C -3.9192072596 0.9899890665 -0.0024366400
C -2.6587240071 1.5588778045 -0.0005260749
C -1.5171958245 0.7596813780 0.0006194948
C -1.6531109370 -0.6354995801 0.0001428290
C -2.9274755305 -1.1946620390 -0.0017321550
C -0.4752604345 -1.5317698219 0.0015869783
O -0.6129197819 -2.7586938699 0.0032996637
C 0.8281073666 -0.8921311174 0.0008409922
C 1.9862655551 -1.6812912763 0.0000764915
C 3.2380343451 -1.1222422355 -0.0012004958
C 3.3983902149 0.2766723700 -0.0016016317
C 2.2389584163 1.0719130050 -0.0003473655
C 0.9764430087 0.5086234781 0.0007920591
C -0.1928292173 1.4057685554 0.0020803091
O -0.0724017219 2.6270326473 0.0039945177
N 4.6184857039 0.8386827573 -0.0026293928
H -5.0342512118 -0.8400796841 -0.0047736336
H -4.7943822207 1.6203811045 -0.0033855912
H -2.5273693009 2.6309163866 0.0000630417
H -3.0071024167 -2.2718985580 -0.0021226156
H 1.8581879072 -2.7538275763 0.0001980921
H 4.1126937248 -1.7537056383 -0.0020228865
H 2.3162337150 2.1495036858 -0.0003418274
H 4.7130170547 1.8382877480 -0.0042449780
H 5.4408304768 0.2624287356 -0.0048157014
