15
 xtb: 6.7.1 (edcfbbe)
C           -2.10345851612136        0.08568095387913       -0.17202026168753
C           -0.72494760384263        0.66169025472951       -0.09743291340853
C            0.44104797699469        0.01047839874078        0.02842213889828
C            1.74309665947800        0.76013821219929        0.08538513426317
C            0.58820616378123       -1.48059696453324        0.12043247641786
H           -2.60222964484437        0.39410367422841       -1.09933427422671
H           -2.11898693148493       -1.00494643946694       -0.13061867313141
H           -2.72635130204067        0.46276591394174        0.64919718415592
H           -0.67902474398677        1.75034849715363       -0.15237432779140
H            1.59541599016405        1.84158533953896        0.01977924477675
H            2.27938483463170        0.53918286114757        1.01720843438708
H            2.40586686919593        0.45067249864154       -0.73316102537383
H            1.08492988101378       -1.75585684182495        1.05933489625500
H           -0.36017111921529       -2.01695141556596        0.06948580619061
H            1.23382279756757       -1.84858431893365       -0.68637894762311
