26
CONF1
C -4.3650308813 -1.2561230219 0.4058231126
N -3.3090181117 -0.7795936063 -0.4784548187
C -2.2240888433 -0.1727027231 0.0133293486
O -1.9797752377 0.0196879205 1.1989346309
O -1.3837129263 0.2369640805 -1.0099479478
C -0.1691296802 0.8127931374 -0.6153300152
C -0.0436932260 2.1757515044 -0.6592355149
C 1.1951910479 2.7686965233 -0.3372886898
C 2.2684574922 1.9897341117 0.0223652501
C 2.1523912483 0.5789554901 0.0741843674
C 0.9025260964 -0.0383734161 -0.2545792128
C 0.7887407434 -1.4483528135 -0.2079246140
C 1.8687742445 -2.2182612007 0.1542995873
C 3.1029242890 -1.6160101159 0.4818742823
C 3.2411823786 -0.2492337772 0.4414794063
H -3.9942222516 -2.0355000985 1.0783868519
H -5.1614066008 -1.6741753177 -0.2103989999
H -4.7751773496 -0.4373902004 1.0044795595
H -3.4060627312 -0.8707139344 -1.4779278168
H -0.8967281022 2.7833753213 -0.9419000350
H 1.2899943114 3.8488090953 -0.3749022191
H 3.2228601365 2.4436707388 0.2714604863
H -0.1556646462 -1.9183681097 -0.4620843498
H 1.7752707720 -3.2989797436 0.1877883949
H 3.9446324437 -2.2398068622 0.7651286466
H 4.1888950775 0.2193750014 0.6906623088
26
CONF2
C -4.3555504919 -1.3529958431 -0.3425946506
N -3.3001283301 -0.7824635213 0.4846161987
C -2.2260490180 -0.2107386854 -0.0705476194
O -1.9663575530 -0.1670411216 -1.2674281399
O -1.4104822590 0.3463747348 0.9020434086
C -0.1884822551 0.8669095348 0.4571767824
C -0.0632778055 2.2231757484 0.3171898478
C 1.1831229896 2.7690915789 -0.0557396815
C 2.2636787501 1.9508836683 -0.2813808607
C 2.1479004488 0.5459619810 -0.1421353143
C 0.8905819957 -0.0234112674 0.2398888611
C 0.7765740647 -1.4266248940 0.3845182887
C 1.8640973394 -2.2365197928 0.1557528007
C 3.1058766834 -1.6819486637 -0.2229731965
C 3.2443388805 -0.3221829268 -0.3671625280
H -4.8818550914 -0.5804400857 -0.9135205903
H -5.0683120428 -1.8546515457 0.3126805800
H -3.9420739986 -2.0875568664 -1.0387416242
H -3.4329055284 -0.6984031162 1.4809824362
H -0.9214015494 2.8623281761 0.4955314371
H 1.2779193315 3.8444666333 -0.1637448404
H 3.2234679144 2.3693482515 -0.5691367806
H -0.1733516795 -1.8599716254 0.6804615046
H 1.7699642407 -3.3117925243 0.2685961017
H 3.9534383567 -2.3367011630 -0.3985005130
H 4.1979865868 0.1098937671 -0.6564478780
26
CONF4
C -3.4283803865 -0.3464960198 1.6688134067
N -2.3333437192 0.0279039008 0.7804867201
C -2.3847381855 -0.2714461964 -0.5222819508
O -3.2832578431 -0.8958959312 -1.0751625360
O -1.3334833233 0.1633042261 -1.3135331441
C -0.2164710187 0.7711764210 -0.7217387953
C -0.1665497700 2.1384790782 -0.6388474027
C 0.9818877420 2.7570165621 -0.1014456306
C 2.0419330145 1.9995581747 0.3352060074
C 2.0044653982 0.5857466615 0.2540274701
C 0.8478780281 -0.0587491602 -0.2912108604
C 0.8094256319 -1.4707320660 -0.3755535373
C 1.8758886168 -2.2178921201 0.0662973562
C 3.0193953960 -1.5895963658 0.6053245420
C 3.0824239134 -0.2196505337 0.6961379493
H -3.6130195660 -1.4225210725 1.6172457644
H -4.3500603518 0.1847778753 1.4108832674
H -3.1425859720 -0.0869366659 2.6884080243
H -1.5946117801 0.6201572821 1.1302349927
H -1.0089217901 2.7279428980 -0.9853899847
H 1.0181862729 3.8393947247 -0.0379158386
H 2.9262094138 2.4742176079 0.7496367824
H -0.0669115849 -1.9573739284 -0.7907792921
H 1.8412056195 -3.3005125313 -0.0004494578
H 3.8517431305 -2.1959689136 0.9479404493
H 3.9604920180 0.2683701478 1.1089988566
26
CONF5
C -3.3699257958 -0.4480193877 1.6959506868
N -2.3332346668 0.0125982037 0.7782913194
C -2.3591595217 -0.3447603520 -0.5095927243
O -3.2287877396 -1.0252573381 -1.0425429396
O -1.3277816942 0.1131782876 -1.3151003169
C -0.2176931860 0.7450461786 -0.7355206754
C -0.1743513324 2.1142554895 -0.6936205498
C 0.9674616505 2.7536282011 -0.1663070507
C 2.0269640737 2.0147115465 0.3023394764
C 1.9964225700 0.5988887714 0.2634167597
C 0.8476146653 -0.0665735252 -0.2727139121
C 0.8165892508 -1.4806419660 -0.3170885260
C 1.8822970397 -2.2096629088 0.1557583950
C 3.0177371127 -1.5605602405 0.6870515255
C 3.0738994730 -0.1882327172 0.7384107082
H -3.3410216068 -1.5361678606 1.8105262477
H -4.3608839493 -0.1550180781 1.3382349910
H -3.1931667472 0.0149541719 2.6672335072
H -1.5746125737 0.5772290881 1.1308517381
H -1.0161506043 2.6900218523 -1.0636040496
H 0.9985306356 3.8375848731 -0.1351823410
H 2.9051837984 2.5060386743 0.7101706104
H -0.0526308236 -1.9841105042 -0.7272555463
H 1.8534890671 -3.2938868171 0.1194091266
H 3.8493830637 -2.1529777021 1.0548231078
H 3.9461119373 0.3155999536 1.1446213727
26
CONF7
C -3.3138435824 -0.5649575137 1.7411123871
N -2.3200799466 -0.0254607088 0.8187723847
C -2.3528279333 -0.3486149804 -0.4789839463
O -3.2263814107 -1.0125815885 -1.0258143117
O -1.3310963507 0.1396613353 -1.2780120052
C -0.2102657614 0.7415905931 -0.6873856513
C -0.1574445260 2.1078699391 -0.5924676759
C 0.9949914215 2.7193117268 -0.0555925737
C 2.0557636196 1.9562157020 0.3693101872
C 2.0156256212 0.5432872994 0.2755211046
C 0.8553561417 -0.0941439306 -0.2702272280
C 0.8144297038 -1.5053283116 -0.3674651368
C 1.8818302845 -2.2582385421 0.0623904338
C 3.0288956287 -1.6368563288 0.6016332858
C 3.0944953728 -0.2678764292 0.7046626498
H -3.1484352567 -0.1140915976 2.7199086121
H -3.2249619756 -1.6523372044 1.8300148481
H -4.3238210992 -0.3176238096 1.4047644268
H -1.5323768841 0.4862334229 1.1882629648
H -1.0004870842 2.7021914081 -0.9287346522
H 1.0334205551 3.8009574321 0.0180061278
H 2.9426250012 2.4257142971 0.7840801232
H -0.0631918672 -1.9881791698 -0.7844439673
H 1.8450872625 -3.3400953668 -0.0148560713
H 3.8620699848 -2.2476810721 0.9341912224
H 3.9754834477 0.2149761706 1.1173792178
