 xtb: 6.7.1 (edcfbbe)
          04032521423D

 26 28  0     0  0            999 V2000
   -3.9295   -0.3081   -0.0027 C   0  0  0  0  0  0  0  0  0  0  0  0
   -3.7203    1.0640   -0.0020 C   0  0  0  0  0  0  0  0  0  0  0  0
   -2.4325    1.5675   -0.0002 C   0  0  0  0  0  0  0  0  0  0  0  0
   -1.3332    0.7119    0.0009 C   0  0  0  0  0  0  0  0  0  0  0  0
   -1.5455   -0.6716    0.0006 C   0  0  0  0  0  0  0  0  0  0  0  0
   -2.8478   -1.1685   -0.0012 C   0  0  0  0  0  0  0  0  0  0  0  0
   -0.4147   -1.6101    0.0013 C   0  0  0  0  0  0  0  0  0  0  0  0
   -0.5910   -2.8270    0.0020 O   0  0  0  0  0  0  0  0  0  0  0  0
    0.9357   -1.0231    0.0007 C   0  0  0  0  0  0  0  0  0  0  0  0
    2.0072   -1.9001    0.0003 C   0  0  0  0  0  0  0  0  0  0  0  0
    3.3154   -1.4196   -0.0010 C   0  0  0  0  0  0  0  0  0  0  0  0
    3.5477   -0.0711   -0.0019 C   0  0  0  0  0  0  0  0  0  0  0  0
    2.4829    0.8618   -0.0012 C   0  0  0  0  0  0  0  0  0  0  0  0
    1.1441    0.3761    0.0002 C   0  0  0  0  0  0  0  0  0  0  0  0
    0.0242    1.2947    0.0020 C   0  0  0  0  0  0  0  0  0  0  0  0
    0.1546    2.5289    0.0043 O   0  0  0  0  0  0  0  0  0  0  0  0
    2.7634    2.1680   -0.0026 N   0  0  0  0  0  0  0  0  0  0  0  0
   -4.9328   -0.7041   -0.0046 H   0  0  0  0  0  0  0  0  0  0  0  0
   -4.5612    1.7397   -0.0033 H   0  0  0  0  0  0  0  0  0  0  0  0
   -2.2483    2.6316    0.0003 H   0  0  0  0  0  0  0  0  0  0  0  0
   -2.9813   -2.2402   -0.0015 H   0  0  0  0  0  0  0  0  0  0  0  0
    1.8012   -2.9594    0.0010 H   0  0  0  0  0  0  0  0  0  0  0  0
    4.1399   -2.1150   -0.0012 H   0  0  0  0  0  0  0  0  0  0  0  0
    4.5576    0.3094   -0.0031 H   0  0  0  0  0  0  0  0  0  0  0  0
    1.9952    2.8268   -0.0002 H   0  0  0  0  0  0  0  0  0  0  0  0
    3.7197    2.4768   -0.0024 H   0  0  0  0  0  0  0  0  0  0  0  0
  1  2  4  0  0  0  0
  2  3  4  0  0  0  0
  3  4  4  0  0  0  0
  4  5  4  0  0  0  0
  1  6  4  0  0  0  0
  5  6  4  0  0  0  0
  5  7  1  0  0  0  0
  7  8  2  0  0  0  0
  7  9  1  0  0  0  0
  9 10  4  0  0  0  0
 10 11  4  0  0  0  0
 11 12  2  0  0  0  0
 12 13  4  0  0  0  0
  9 14  4  0  0  0  0
 13 14  4  0  0  0  0
  4 15  1  0  0  0  0
 14 15  1  0  0  0  0
 15 16  2  0  0  0  0
 13 17  4  0  0  0  0
  1 18  1  0  0  0  0
  2 19  1  0  0  0  0
  3 20  1  0  0  0  0
  6 21  1  0  0  0  0
 10 22  1  0  0  0  0
 11 23  1  0  0  0  0
 12 24  1  0  0  0  0
 17 25  1  0  0  0  0
 17 26  1  0  0  0  0
M  END
