 xtb: 6.7.1 (edcfbbe)
          04032521053D

 12 12  0     0  0            999 V2000
    2.1078    0.0167    0.0002 C   0  0  0  0  0  0  0  0  0  0  0  0
    0.6705   -0.0033    0.0004 N   0  0  0  0  0  0  0  0  0  0  0  0
   -0.1204   -1.1153   -0.0000 C   0  0  0  0  0  0  0  0  0  0  0  0
   -1.4089   -0.6641   -0.0001 C   0  0  0  0  0  0  0  0  0  0  0  0
   -1.4254    0.6965   -0.0001 N   0  0  0  0  0  0  0  0  0  0  0  0
   -0.1654    1.0542    0.0003 C   0  0  0  0  0  0  0  0  0  0  0  0
    2.4904   -0.4853   -0.8891 H   0  0  0  0  0  0  0  0  0  0  0  0
    2.4483    1.0494    0.0045 H   0  0  0  0  0  0  0  0  0  0  0  0
    2.4905   -0.4928    0.8852 H   0  0  0  0  0  0  0  0  0  0  0  0
    0.2854   -2.1051   -0.0001 H   0  0  0  0  0  0  0  0  0  0  0  0
   -2.3224   -1.2243   -0.0003 H   0  0  0  0  0  0  0  0  0  0  0  0
    0.1730    2.0709    0.0006 H   0  0  0  0  0  0  0  0  0  0  0  0
  1  2  1  0  0  0  0
  2  3  4  0  0  0  0
  3  4  2  0  0  0  0
  4  5  4  0  0  0  0
  2  6  4  0  0  0  0
  5  6  2  0  0  0  0
  1  7  1  0  0  0  0
  1  8  1  0  0  0  0
  1  9  1  0  0  0  0
  3 10  1  0  0  0  0
  4 11  1  0  0  0  0
  6 12  1  0  0  0  0
M  END
