15
 xtb: 6.7.1 (edcfbbe)
C           -1.58653433199621        0.89246107793604       -0.30584609138969
C           -1.33431004104414       -0.51103515256986        0.23515850672357
C            0.07551460786912       -0.99906951097732        0.41881134456280
C            1.27292246276892       -0.45332963258076        0.16933254702686
C            1.65454073413051        0.87215121429055       -0.41664372056761
H           -2.66257898785256        1.09445957464677       -0.30638024090052
H           -1.23136088853016        1.00531699443382       -1.33408939299568
H           -1.10618600734416        1.65722675148487        0.31184650630441
H           -1.83045287172596       -0.60747363178094        1.21195984005570
H           -1.85313153592773       -1.24066813582595       -0.40382968383349
H            0.10403398302195       -1.99833363080880        0.85721783329690
H            2.13247540764097       -1.06841976770170        0.44030574271702
H            2.13619612596742        1.49998155911851        0.34408009958541
H            0.82197345257680        1.43087922895573       -0.83772633425315
H            2.40106143146853        0.72599216074484       -1.20614109451745
