23
CONF1
C 4.4810960407 -0.2837436330 -0.0355484233
C 3.6582912365 -1.1775415107 0.6287065190
C 2.2906746567 -0.9691807501 0.6780702696
C 1.7465420228 0.1387924834 0.0431690383
C 2.5693808275 1.0433628288 -0.6182996252
C 3.9343208822 0.8292648108 -0.6535580857
N 0.3480942753 0.3957872480 0.0796658580
C -0.5878853425 -0.6301007616 -0.0802031738
O -0.2374954540 -1.8005217897 -0.2688217684
C -1.9420867720 -0.1902303286 -0.0247021276
C -2.3127205359 1.1321291684 0.1432860992
C -1.2074936781 2.0398017809 0.2529310693
N 0.0236321804 1.6709717153 0.2161567771
N -3.5762791130 1.5537221861 0.1963063129
Cl -3.1474424353 -1.4368384679 -0.2086669558
H 5.5457498098 -0.4540416389 -0.0687016884
H 4.0785585607 -2.0415290226 1.1195793655
H 1.6508511212 -1.6646341002 1.1968352128
H 2.1287731521 1.9047705625 -1.0929055971
H 4.5709617064 1.5308457811 -1.1690569509
H -1.3717976331 3.0978583803 0.3752443234
H -3.7836174056 2.5293091408 0.3164812058
H -4.3157529839 0.8763692582 0.1121490569
23
CONF2
C 4.4384315136 -0.3779930361 -0.0744304089
C 3.7154019543 -0.5183560096 -1.2471804089
C 2.3601415443 -0.2372359301 -1.2661810210
C 1.7375533109 0.1866203677 -0.1029686457
C 2.4534973821 0.3279702490 1.0750344772
C 3.8083365353 0.0443798053 1.0842286996
N 0.3324356594 0.4678126838 -0.1149354145
C -0.5529963220 -0.5732104637 0.1452230742
O -0.1287133141 -1.7109677289 0.3806437299
C -1.9225755526 -0.1840871312 0.1084279269
C -2.3342770751 1.1097792231 -0.1617223658
C -1.2652517537 2.0368920857 -0.4027283141
N -0.0201473408 1.7119863739 -0.3749192053
N -3.6116222213 1.4910558551 -0.2004563946
Cl -3.0839812217 -1.4442480819 0.4278664025
H 5.4936996894 -0.6014516088 -0.0626566854
H 4.2037797789 -0.8499657798 -2.1499829210
H 1.7839082967 -0.3493552446 -2.1714887808
H 1.9491913519 0.6512685814 1.9724186108
H 4.3690064531 0.1503381499 1.9996024247
H -1.4717693506 3.0713293057 -0.6224945020
H -3.8534044617 2.4448245407 -0.4025164474
H -4.3262394162 0.8047191196 -0.0247434574
