23
CONF1
C 4.4891246671 -0.3066999663 -0.0225227095
C 3.6665677405 -1.0869592377 0.7878202739
C 2.2956345876 -0.8555004085 0.8266176441
C 1.7585146185 0.1593951349 0.0400620613
C 2.5670580639 0.9451827494 -0.7744987018
C 3.9385938285 0.7099495045 -0.7987733471
N 0.3458575884 0.4271269800 0.0870370387
C -0.5693068428 -0.5927620067 -0.2618424722
O -0.1625648688 -1.7104474523 -0.6177615800
C -1.9332022930 -0.1907752389 -0.1708338498
C -2.3119196395 1.0941437526 0.1777617590
C -1.2422867422 2.0046531494 0.4533990639
N 0.0166855884 1.6850739285 0.4102069897
N -3.5803822641 1.5237473874 0.2678904876
Cl -3.1453819534 -1.3801119842 -0.5586312697
H 5.5583972847 -0.4898135714 -0.0468664394
H 4.0929863453 -1.8744894245 1.4005635346
H 1.6494497308 -1.4483670708 1.4640612840
H 2.1264609846 1.7284400099 -1.3817400283
H 4.5749254633 1.3202587851 -1.4311758073
H -1.4672044239 3.0321947684 0.7244788747
H -3.7681425219 2.4844878112 0.5057380748
H -4.3554649833 0.9158929283 0.0570396665
23
CONF2
C 4.4537021417 -0.3691536514 -0.0775743755
C 3.7259293404 -0.5165233660 -1.2561755003
C 2.3607909989 -0.2458567256 -1.2729151292
C 1.7435154442 0.1752836028 -0.1014661554
C 2.4547552670 0.3251923610 1.0827387721
C 3.8195930641 0.0520581885 1.0889545103
N 0.3287955199 0.4569613408 -0.1134927392
C -0.5620847574 -0.5994107833 0.1524175164
O -0.1215983245 -1.7370123322 0.3900180473
C -1.9323486061 -0.2129259864 0.1152959685
C -2.3293444452 1.0857803060 -0.1557728381
C -1.2760306443 2.0260339222 -0.3957610729
N -0.0112461546 1.7243685783 -0.3755577373
N -3.6041959775 1.5028288217 -0.2040773866
Cl -3.1240078259 -1.4432985506 0.4293658612
H 5.5173332901 -0.5833864278 -0.0681867337
H 4.2199448782 -0.8432259566 -2.1652026080
H 1.7787561877 -0.3592985456 -2.1814797090
H 1.9449196948 0.6489639538 1.9841155651
H 4.3862769108 0.1669385205 2.0069371525
H -1.5202659627 3.0617453095 -0.6116800037
H -3.8082738535 2.4678405390 -0.4084602200
H -4.3705119847 0.8681981446 -0.0480081293
