24
 xtb: 6.7.1 (edcfbbe)
C           -3.55057203567494       -0.29819114741432       -0.00023159374182
C           -2.87450332192795       -1.52886784758903        0.00024000578925
C           -1.49404061159074       -1.57090899154190        0.00041636221551
C           -0.72585176099157       -0.38708190869872        0.00012463203880
C           -1.41706090933559        0.85956523022196       -0.00013577771645
C           -2.82845989915442        0.87569977554876       -0.00036652015416
C           -0.67936674088306        2.08418629803952       -0.00009282049117
C            0.67935448285780        2.08418920841891        0.00013191489150
C            1.41705327543485        0.85957112943936        0.00014444078758
C            0.72584909461182       -0.38707832339140        0.00006814292377
C            1.49404180849436       -1.57090326034779       -0.00018275243448
C            2.87450411884764       -1.52885821087593       -0.00028876050383
C            3.55056812690512       -0.29817867125778       -0.00012245837227
C            2.82845223634756        0.87570985609044        0.00009650715941
H           -4.63563666108725       -0.27410295901113       -0.00043477267230
H           -3.43945912213218       -2.45573145000071        0.00047643497394
H           -1.00512868806645       -2.53797519746133        0.00083503454600
H           -3.33603497868757        1.83630723192908       -0.00065050208246
H           -1.23435982992597        3.01805802474747       -0.00019829796458
H            1.23434264756890        3.01806370404622        0.00023887509647
H            1.00513015006915       -2.53796967072672       -0.00039677613765
H            3.43946336764676       -2.45571974207294       -0.00052949847464
H            4.63563266439671       -0.27408593238973       -0.00019536965015
H            3.33602562313156        1.83631810183623        0.00017305929975
