11
 xtb: 6.7.1 (edcfbbe)
C            1.10272859242763       -0.00113089306445        0.08944155925220
C           -0.00941196707997        1.04555388167501       -0.08897587551653
N           -1.02849940219035        0.00105691860648        0.26341306996623
C           -0.01155999599681       -1.04553053656763       -0.08898401365436
H            1.50785874913228       -0.00154941916787        1.10461055021207
H            1.91836544268575       -0.00195966286089       -0.63515548430646
H           -0.00284764546052        1.91821838575160        0.57213441483836
H           -0.08744693107240        1.38555584465263       -1.12948007661188
H           -1.80455902342816        0.00185837715173       -0.39200844216123
H           -0.00678906933775       -1.91820792748950        0.57212470377892
H           -0.09029215514203       -1.38536989929550       -1.12948860792629
