 xtb: 6.7.1 (edcfbbe)
          04032522173D

 12 11  0     0  0            999 V2000
   -1.9247   -0.2570    0.5220 C   0  0  0  0  0  0  0  0  0  0  0  0
   -1.1750   -0.0923   -0.7943 C   0  0  0  0  0  0  0  0  0  0  0  0
    0.0968    0.7246   -0.6346 C   0  0  0  0  0  0  0  0  0  0  0  0
    1.3260   -0.1930    0.3881 S   0  0  0  0  0  0  0  0  0  0  0  0
   -2.8219   -0.8523    0.3756 H   0  0  0  0  0  0  0  0  0  0  0  0
   -1.2956   -0.7578    1.2555 H   0  0  0  0  0  0  0  0  0  0  0  0
   -2.2123    0.7133    0.9209 H   0  0  0  0  0  0  0  0  0  0  0  0
   -1.8146    0.4142   -1.5207 H   0  0  0  0  0  0  0  0  0  0  0  0
   -0.9198   -1.0755   -1.1969 H   0  0  0  0  0  0  0  0  0  0  0  0
    0.5636    0.9085   -1.6011 H   0  0  0  0  0  0  0  0  0  0  0  0
   -0.1063    1.6678   -0.1288 H   0  0  0  0  0  0  0  0  0  0  0  0
    2.2820    0.7225    0.3012 H   0  0  0  0  0  0  0  0  0  0  0  0
  1  2  1  0  0  0  0
  2  3  1  0  0  0  0
  3  4  1  0  0  0  0
  1  5  1  0  0  0  0
  1  6  1  0  0  0  0
  1  7  1  0  0  0  0
  2  8  1  0  0  0  0
  2  9  1  0  0  0  0
  3 10  1  0  0  0  0
  3 11  1  0  0  0  0
  4 12  1  0  0  0  0
M  END
