 xtb: 6.7.1 (edcfbbe)
          04062518003D

 24 24  0     0  0            999 V2000
   -2.0789   -1.2411   -0.1772 C   0  0  0  0  0  0  0  0  0  0  0  0
   -1.2414   -0.3622    0.7774 C   0  0  0  0  0  0  0  0  0  0  0  0
   -1.8217   -0.2027    1.6921 H   0  0  0  0  0  0  0  0  0  0  0  0
   -0.9311    1.0189    0.1472 C   0  0  0  0  0  0  0  0  0  0  0  0
   -1.2189    0.9921   -0.9154 H   0  0  0  0  0  0  0  0  0  0  0  0
    0.5727    1.2956    0.2251 C   0  0  0  0  0  0  0  0  0  0  0  0
    0.8607    1.4111    1.2759 H   0  0  0  0  0  0  0  0  0  0  0  0
    1.3317    0.1075   -0.3853 C   0  0  0  0  0  0  0  0  0  0  0  0
    1.0061   -0.0322   -1.4293 H   0  0  0  0  0  0  0  0  0  0  0  0
    1.0134   -1.1736    0.4001 C   0  0  0  0  0  0  0  0  0  0  0  0
    1.8630   -1.3816    1.0635 H   0  0  0  0  0  0  0  0  0  0  0  0
   -0.0790   -1.0289    1.2689 O   0  0  0  0  0  0  0  0  0  0  0  0
    0.8237   -2.2186   -0.5095 O   0  0  0  0  0  0  0  0  0  0  0  0
    2.7188    0.3180   -0.3454 O   0  0  0  0  0  0  0  0  0  0  0  0
    0.9548    2.4890   -0.4061 O   0  0  0  0  0  0  0  0  0  0  0  0
   -1.5979    2.0638    0.8138 O   0  0  0  0  0  0  0  0  0  0  0  0
   -1.5959   -1.2793   -1.4968 O   0  0  0  0  0  0  0  0  0  0  0  0
   -3.0849   -0.8221   -0.2432 H   0  0  0  0  0  0  0  0  0  0  0  0
   -2.1440   -2.2489    0.2485 H   0  0  0  0  0  0  0  0  0  0  0  0
    0.8828   -3.0747   -0.0582 H   0  0  0  0  0  0  0  0  0  0  0  0
    2.8838    1.2590   -0.5264 H   0  0  0  0  0  0  0  0  0  0  0  0
    0.5093    2.5682   -1.2629 H   0  0  0  0  0  0  0  0  0  0  0  0
   -2.5410    2.0476    0.6003 H   0  0  0  0  0  0  0  0  0  0  0  0
   -0.7387   -1.7454   -1.4945 H   0  0  0  0  0  0  0  0  0  0  0  0
  1  2  1  0  0  0  0
  2  3  1  0  0  0  0
  2  4  1  0  0  0  0
  4  5  1  0  0  0  0
  4  6  1  0  0  0  0
  6  7  1  0  0  0  0
  6  8  1  0  0  0  0
  8  9  1  0  0  0  0
  8 10  1  0  0  0  0
 10 11  1  0  0  0  0
  2 12  1  0  0  0  0
 10 12  1  0  0  0  0
 10 13  1  0  0  0  0
  8 14  1  0  0  0  0
  6 15  1  0  0  0  0
  4 16  1  0  0  0  0
  1 17  1  0  0  0  0
  1 18  1  0  0  0  0
  1 19  1  0  0  0  0
 13 20  1  0  0  0  0
 14 21  1  0  0  0  0
 15 22  1  0  0  0  0
 16 23  1  0  0  0  0
 17 24  1  0  0  0  0
M  END
