22
 xtb: 6.7.1 (edcfbbe)
C            1.52717391503641        1.28739296539361       -1.45190061763030
C            2.89815706349091        1.42583628222779       -1.60230253268116
C            3.75159852936693        0.83305797850169       -0.68191356162184
C            3.24425962322563        0.10830597506363        0.40157522640041
C            1.85718827025931       -0.01747448078312        0.53820982076524
C            0.98851198917993        0.55959446828598       -0.39255258860677
C           -0.48327782233819        0.43796125811219       -0.26132049595126
C           -1.21728479784329        1.53913555602780        0.16618902333433
C           -2.59665180972855        1.46387714957133        0.28800929217263
C           -3.27613036459069        0.28263502240721       -0.01698621270420
C           -2.54662770186058       -0.82868905369901       -0.46114018140256
C           -1.15703762267382       -0.74318205690662       -0.58513397845602
Cl          -0.25241539660110       -2.10692606043384       -1.17063931590591
Cl          -3.37041939619631       -2.29766557180134       -0.86097462771809
Cl          -4.99665612487027        0.18989350553086        0.14450591058107
Cl          -3.46545698272435        2.87030744478162        0.83072031165190
Cl           1.19642205359775       -0.88057751651024        1.89782204659584
Cl           4.31397558498833       -0.61362741241394        1.55809528143670
Cl           5.47241404387410        1.01086079712134       -0.89384252078963
H            0.85794681509689        1.74412119453011       -2.17253150819076
H            3.30600863809990        1.98972289905441       -2.43275699106485
H           -0.70112807503313        2.45949048938826        0.41308939025604
