7
CONF1
C 1.2902616589 0.0000437963 0.0000212737
C -0.1549003924 -0.0001499192 -0.0000860728
C -1.3517615875 0.0000648534 0.0000472506
H 1.6598493045 -0.9588674550 -0.3597438910
H 1.6594986776 0.7912706028 -0.6504697993
H 1.6594531667 0.1679955895 1.0104474942
H -2.4001504653 0.0000930344 -0.0000246944
