 xtb: 6.7.1 (edcfbbe)
          04052508533D

 21 21  0     0  0            999 V2000
   -2.6698   -1.4345   -0.0745 C   0  0  0  0  0  0  0  0  0  0  0  0
   -1.9578   -0.0901    0.0124 C   0  0  0  0  0  0  0  0  0  0  0  0
   -0.4521   -0.1414   -0.0057 C   0  0  0  0  0  0  0  0  0  0  0  0
    0.2481   -1.3364   -0.0966 C   0  0  0  0  0  0  0  0  0  0  0  0
    1.6325   -1.3597   -0.1112 C   0  0  0  0  0  0  0  0  0  0  0  0
    2.3421   -0.1764   -0.0343 C   0  0  0  0  0  0  0  0  0  0  0  0
    1.6557    1.0217    0.0562 C   0  0  0  0  0  0  0  0  0  0  0  0
    0.2686    1.0582    0.0716 C   0  0  0  0  0  0  0  0  0  0  0  0
   -0.4380    2.3763    0.1701 C   0  0  0  0  0  0  0  0  0  0  0  0
   -3.7457   -1.2766   -0.0520 H   0  0  0  0  0  0  0  0  0  0  0  0
   -2.4035   -2.0720    0.7654 H   0  0  0  0  0  0  0  0  0  0  0  0
   -2.4221   -1.9479   -1.0006 H   0  0  0  0  0  0  0  0  0  0  0  0
   -2.2720    0.4142    0.9313 H   0  0  0  0  0  0  0  0  0  0  0  0
   -2.2893    0.5369   -0.8208 H   0  0  0  0  0  0  0  0  0  0  0  0
   -0.2848   -2.2717   -0.1576 H   0  0  0  0  0  0  0  0  0  0  0  0
    2.1532   -2.3034   -0.1824 H   0  0  0  0  0  0  0  0  0  0  0  0
    3.4220   -0.1836   -0.0445 H   0  0  0  0  0  0  0  0  0  0  0  0
    2.2088    1.9486    0.1166 H   0  0  0  0  0  0  0  0  0  0  0  0
    0.2795    3.1910    0.2219 H   0  0  0  0  0  0  0  0  0  0  0  0
   -1.0801    2.5342   -0.6954 H   0  0  0  0  0  0  0  0  0  0  0  0
   -1.0666    2.4106    1.0590 H   0  0  0  0  0  0  0  0  0  0  0  0
  1  2  1  0  0  0  0
  2  3  1  0  0  0  0
  3  4  4  0  0  0  0
  4  5  4  0  0  0  0
  5  6  4  0  0  0  0
  6  7  4  0  0  0  0
  3  8  4  0  0  0  0
  7  8  4  0  0  0  0
  8  9  1  0  0  0  0
  1 10  1  0  0  0  0
  1 11  1  0  0  0  0
  1 12  1  0  0  0  0
  2 13  1  0  0  0  0
  2 14  1  0  0  0  0
  4 15  1  0  0  0  0
  5 16  1  0  0  0  0
  6 17  1  0  0  0  0
  7 18  1  0  0  0  0
  9 19  1  0  0  0  0
  9 20  1  0  0  0  0
  9 21  1  0  0  0  0
M  END
