 xtb: 6.7.1 (edcfbbe)
          04062518003D

 24 24  0     0  0            999 V2000
   -2.4515   -0.8608    0.1666 C   0  0  0  0  0  0  0  0  0  0  0  0
   -1.0235   -0.4878    0.5680 C   0  0  0  0  0  0  0  0  0  0  0  0
   -0.8763   -0.7340    1.6323 H   0  0  0  0  0  0  0  0  0  0  0  0
   -0.7449    1.0219    0.3965 C   0  0  0  0  0  0  0  0  0  0  0  0
   -1.5871    1.4815   -0.1334 H   0  0  0  0  0  0  0  0  0  0  0  0
    0.5217    1.2321   -0.4643 C   0  0  0  0  0  0  0  0  0  0  0  0
    0.8374    2.2796   -0.3917 H   0  0  0  0  0  0  0  0  0  0  0  0
    1.6656    0.3578    0.0881 C   0  0  0  0  0  0  0  0  0  0  0  0
    2.5176    0.3946   -0.5992 H   0  0  0  0  0  0  0  0  0  0  0  0
    1.2077   -1.1205    0.1660 C   0  0  0  0  0  0  0  0  0  0  0  0
    1.3225   -1.4600    1.2186 H   0  0  0  0  0  0  0  0  0  0  0  0
   -0.1453   -1.2777   -0.2114 O   0  0  0  0  0  0  0  0  0  0  0  0
    1.9782   -1.8751   -0.6931 O   0  0  0  0  0  0  0  0  0  0  0  0
    2.1237    0.8317    1.3266 O   0  0  0  0  0  0  0  0  0  0  0  0
    0.2710    1.0073   -1.8237 O   0  0  0  0  0  0  0  0  0  0  0  0
   -0.5860    1.5708    1.6889 O   0  0  0  0  0  0  0  0  0  0  0  0
   -2.7161   -0.3522   -1.1192 O   0  0  0  0  0  0  0  0  0  0  0  0
   -3.1392   -0.4312    0.9059 H   0  0  0  0  0  0  0  0  0  0  0  0
   -2.5290   -1.9532    0.1814 H   0  0  0  0  0  0  0  0  0  0  0  0
    1.6123   -2.7715   -0.7624 H   0  0  0  0  0  0  0  0  0  0  0  0
    1.3524    1.0470    1.8835 H   0  0  0  0  0  0  0  0  0  0  0  0
   -0.0884    0.1125   -1.9337 H   0  0  0  0  0  0  0  0  0  0  0  0
   -0.7147    2.5296    1.6583 H   0  0  0  0  0  0  0  0  0  0  0  0
   -3.5708   -0.6834   -1.4273 H   0  0  0  0  0  0  0  0  0  0  0  0
  1  2  1  0  0  0  0
  2  3  1  0  0  0  0
  2  4  1  0  0  0  0
  4  5  1  0  0  0  0
  4  6  1  0  0  0  0
  6  7  1  0  0  0  0
  6  8  1  0  0  0  0
  8  9  1  0  0  0  0
  8 10  1  0  0  0  0
 10 11  1  0  0  0  0
  2 12  1  0  0  0  0
 10 12  1  0  0  0  0
 10 13  1  0  0  0  0
  8 14  1  0  0  0  0
  6 15  1  0  0  0  0
  4 16  1  0  0  0  0
  1 17  1  0  0  0  0
  1 18  1  0  0  0  0
  1 19  1  0  0  0  0
 13 20  1  0  0  0  0
 14 21  1  0  0  0  0
 15 22  1  0  0  0  0
 16 23  1  0  0  0  0
 17 24  1  0  0  0  0
M  END
