15
 xtb: 6.7.1 (edcfbbe)
C           -0.41005230228790       -1.06292319226180        0.00001177102007
C            0.96092073864857       -1.20939243367551        0.00001586251770
C            1.77688042396589       -0.06791619895891       -0.00000978106408
C            1.21761808576665        1.21468857042838       -0.00003628099866
C           -0.15941489711421        1.34811367265126       -0.00005424411846
C           -0.99044708718236        0.21790761469057       -0.00004585742083
C           -2.43133208367771        0.40493183008705       -0.00008014021205
O           -3.26381781462780       -0.50253887906357        0.00004938788135
O            3.12142139718558       -0.27293264305370       -0.00001568160134
H           -1.05118735401671       -1.93867987588808        0.00003082863807
H            1.42406215927610       -2.19045384744022        0.00002642286535
H            1.86542581397575        2.08625848580063       -0.00005130660437
H           -0.60622333871074        2.33870037475260       -0.00005074112572
H           -2.76456685459487        1.46179012281885        0.00001757732563
H            3.58420658343256        0.57820678529111       -0.00002212565990
