 xtb: 6.7.1 (edcfbbe)
          04042519143D

 15 14  0     0  0            999 V2000
   -1.3504   -0.8692    0.4105 C   0  0  0  0  0  0  0  0  0  0  0  0
   -0.5935    0.0852   -0.5099 C   0  0  0  0  0  0  0  0  0  0  0  0
   -0.6698    1.5179    0.0122 C   0  0  0  0  0  0  0  0  0  0  0  0
    0.8689   -0.3548   -0.6482 C   0  0  0  0  0  0  0  0  0  0  0  0
    1.5014   -0.3244    0.6159 O   0  0  0  0  0  0  0  0  0  0  0  0
   -1.3371   -1.8796    0.0083 H   0  0  0  0  0  0  0  0  0  0  0  0
   -2.3838   -0.5512    0.5192 H   0  0  0  0  0  0  0  0  0  0  0  0
   -0.8807   -0.8798    1.3908 H   0  0  0  0  0  0  0  0  0  0  0  0
   -1.0368    0.0446   -1.5110 H   0  0  0  0  0  0  0  0  0  0  0  0
   -0.1735    2.2016   -0.6727 H   0  0  0  0  0  0  0  0  0  0  0  0
   -0.1795    1.5800    0.9804 H   0  0  0  0  0  0  0  0  0  0  0  0
   -1.7059    1.8265    0.1224 H   0  0  0  0  0  0  0  0  0  0  0  0
    0.9013   -1.3721   -1.0628 H   0  0  0  0  0  0  0  0  0  0  0  0
    1.3841    0.3211   -1.3451 H   0  0  0  0  0  0  0  0  0  0  0  0
    2.4204   -0.6025    0.5176 H   0  0  0  0  0  0  0  0  0  0  0  0
  1  2  1  0  0  0  0
  2  3  1  0  0  0  0
  2  4  1  0  0  0  0
  4  5  1  0  0  0  0
  1  6  1  0  0  0  0
  1  7  1  0  0  0  0
  1  8  1  0  0  0  0
  2  9  1  0  0  0  0
  3 10  1  0  0  0  0
  3 11  1  0  0  0  0
  3 12  1  0  0  0  0
  4 13  1  0  0  0  0
  4 14  1  0  0  0  0
  5 15  1  0  0  0  0
M  END
