9
CONF1
C -0.6396540421 0.9830598150 -0.0000370320
C 0.7279438677 0.9137722831 -0.0000285984
N 1.1470125877 -0.4045590670 -0.0000256164
C 0.0321009045 -1.1171701468 -0.0000339509
N -1.0695931998 -0.3237841127 -0.0000399307
H -1.3284444708 1.8137544722 -0.0000394176
H 1.4312232053 1.7341474230 -0.0000275231
H -0.0349147841 -2.1963695875 -0.0000372983
H -2.0296683529 -0.6370495850 -0.0000494330
