 xtb: 6.7.1 (edcfbbe)
          04042516043D

 13 12  0     0  0            999 V2000
   -1.6856    0.6138   -0.6282 C   0  0  0  0  0  0  0  0  0  0  0  0
   -1.1978   -0.0785    0.6384 C   0  0  0  0  0  0  0  0  0  0  0  0
    0.0387   -0.9461    0.3733 C   0  0  0  0  0  0  0  0  0  0  0  0
    1.1796   -0.1463   -0.0241 C   0  0  0  0  0  0  0  0  0  0  0  0
    2.1106    0.5344   -0.3449 C   0  0  0  0  0  0  0  0  0  0  0  0
   -1.9673   -0.1199   -1.3808 H   0  0  0  0  0  0  0  0  0  0  0  0
   -2.5507    1.2365   -0.4138 H   0  0  0  0  0  0  0  0  0  0  0  0
   -0.8988    1.2424   -1.0399 H   0  0  0  0  0  0  0  0  0  0  0  0
   -0.9540    0.6720    1.3935 H   0  0  0  0  0  0  0  0  0  0  0  0
   -1.9916   -0.7136    1.0372 H   0  0  0  0  0  0  0  0  0  0  0  0
   -0.1801   -1.6663   -0.4198 H   0  0  0  0  0  0  0  0  0  0  0  0
    0.3017   -1.5008    1.2780 H   0  0  0  0  0  0  0  0  0  0  0  0
    2.9326    1.1208   -0.6280 H   0  0  0  0  0  0  0  0  0  0  0  0
  1  2  1  0  0  0  0
  2  3  1  0  0  0  0
  3  4  1  0  0  0  0
  4  5  3  0  0  0  0
  1  6  1  0  0  0  0
  1  7  1  0  0  0  0
  1  8  1  0  0  0  0
  2  9  1  0  0  0  0
  2 10  1  0  0  0  0
  3 11  1  0  0  0  0
  3 12  1  0  0  0  0
  5 13  1  0  0  0  0
M  END
