 xtb: 6.7.1 (edcfbbe)
          04052516073D

 27 27  0     0  0            999 V2000
   -3.0770    0.7878   -0.3698 C   0  0  0  0  0  0  0  0  0  0  0  0
   -1.8972    0.4093    0.5263 C   0  0  0  0  0  0  0  0  0  0  0  0
   -2.2742    0.3214    1.5533 H   0  0  0  0  0  0  0  0  0  0  0  0
   -0.7683    1.4468    0.4875 C   0  0  0  0  0  0  0  0  0  0  0  0
    0.1738    1.1535   -0.6742 C   0  0  0  0  0  0  0  0  0  0  0  0
    0.9113   -0.1898   -0.4825 C   0  0  0  0  0  0  0  0  0  0  0  0
    0.9953   -0.6696   -1.4622 H   0  0  0  0  0  0  0  0  0  0  0  0
    0.1001   -1.1390    0.4225 C   0  0  0  0  0  0  0  0  0  0  0  0
   -1.3712   -0.9677    0.1820 C   0  0  0  0  0  0  0  0  0  0  0  0
   -2.0823   -1.8630   -0.2327 O   0  0  0  0  0  0  0  0  0  0  0  0
    2.3168    0.0486    0.0303 C   0  0  0  0  0  0  0  0  0  0  0  0
    2.6162    0.2974    1.2951 C   0  0  0  0  0  0  0  0  0  0  0  0
    3.3677    0.0413   -1.0385 C   0  0  0  0  0  0  0  0  0  0  0  0
   -3.5701    1.6795    0.0067 H   0  0  0  0  0  0  0  0  0  0  0  0
   -2.7390    0.9762   -1.3859 H   0  0  0  0  0  0  0  0  0  0  0  0
   -3.7947   -0.0289   -0.3981 H   0  0  0  0  0  0  0  0  0  0  0  0
   -1.2012    2.4409    0.3727 H   0  0  0  0  0  0  0  0  0  0  0  0
   -0.2043    1.4385    1.4199 H   0  0  0  0  0  0  0  0  0  0  0  0
   -0.4080    1.1175   -1.5972 H   0  0  0  0  0  0  0  0  0  0  0  0
    0.9036    1.9581   -0.7719 H   0  0  0  0  0  0  0  0  0  0  0  0
    0.3891   -2.1742    0.2384 H   0  0  0  0  0  0  0  0  0  0  0  0
    0.2917   -0.9043    1.4688 H   0  0  0  0  0  0  0  0  0  0  0  0
    3.6293    0.4957    1.6004 H   0  0  0  0  0  0  0  0  0  0  0  0
    1.8847    0.3179    2.0839 H   0  0  0  0  0  0  0  0  0  0  0  0
    3.1051    0.7433   -1.8285 H   0  0  0  0  0  0  0  0  0  0  0  0
    4.3399    0.3107   -0.6360 H   0  0  0  0  0  0  0  0  0  0  0  0
    3.4365   -0.9497   -1.4858 H   0  0  0  0  0  0  0  0  0  0  0  0
  1  2  1  0  0  0  0
  2  3  1  0  0  0  0
  2  4  1  0  0  0  0
  4  5  1  0  0  0  0
  5  6  1  0  0  0  0
  6  7  1  0  0  0  0
  6  8  1  0  0  0  0
  2  9  1  0  0  0  0
  8  9  1  0  0  0  0
  9 10  2  0  0  0  0
  6 11  1  0  0  0  0
 11 12  2  0  0  0  0
 11 13  1  0  0  0  0
  1 14  1  0  0  0  0
  1 15  1  0  0  0  0
  1 16  1  0  0  0  0
  4 17  1  0  0  0  0
  4 18  1  0  0  0  0
  5 19  1  0  0  0  0
  5 20  1  0  0  0  0
  8 21  1  0  0  0  0
  8 22  1  0  0  0  0
 12 23  1  0  0  0  0
 12 24  1  0  0  0  0
 13 25  1  0  0  0  0
 13 26  1  0  0  0  0
 13 27  1  0  0  0  0
M  END
