 xtb: 6.7.1 (edcfbbe)
          04052518533D

 23 23  0     0  0            999 V2000
   -2.6410   -0.1963    1.1447 C   0  0  0  0  0  0  0  0  0  0  0  0
   -1.7436    0.0014   -0.0407 C   0  0  0  0  0  0  0  0  0  0  0  0
   -2.1581   -0.0248   -1.1834 O   0  0  0  0  0  0  0  0  0  0  0  0
   -0.2803    0.2108    0.2883 C   0  0  0  0  0  0  0  0  0  0  0  0
    0.4026    1.1466   -0.7210 C   0  0  0  0  0  0  0  0  0  0  0  0
    1.8845    0.8072   -0.9098 C   0  0  0  0  0  0  0  0  0  0  0  0
    2.4779    0.2974    0.3991 C   0  0  0  0  0  0  0  0  0  0  0  0
    1.8445   -1.0461    0.7818 C   0  0  0  0  0  0  0  0  0  0  0  0
    0.4083   -1.1634    0.2593 C   0  0  0  0  0  0  0  0  0  0  0  0
   -2.7785    0.7681    1.6303 H   0  0  0  0  0  0  0  0  0  0  0  0
   -3.6093   -0.5754    0.8303 H   0  0  0  0  0  0  0  0  0  0  0  0
   -2.1821   -0.8707    1.8617 H   0  0  0  0  0  0  0  0  0  0  0  0
   -0.1996    0.6108    1.3015 H   0  0  0  0  0  0  0  0  0  0  0  0
   -0.1203    1.0685   -1.6772 H   0  0  0  0  0  0  0  0  0  0  0  0
    0.2995    2.1756   -0.3713 H   0  0  0  0  0  0  0  0  0  0  0  0
    2.0028    0.0410   -1.6776 H   0  0  0  0  0  0  0  0  0  0  0  0
    2.4195    1.6954   -1.2478 H   0  0  0  0  0  0  0  0  0  0  0  0
    3.5584    0.1838    0.3046 H   0  0  0  0  0  0  0  0  0  0  0  0
    2.2922    1.0375    1.1794 H   0  0  0  0  0  0  0  0  0  0  0  0
    2.4326   -1.8663    0.3678 H   0  0  0  0  0  0  0  0  0  0  0  0
    1.8502   -1.1521    1.8675 H   0  0  0  0  0  0  0  0  0  0  0  0
    0.4005   -1.5264   -0.7697 H   0  0  0  0  0  0  0  0  0  0  0  0
   -0.1474   -1.8818    0.8640 H   0  0  0  0  0  0  0  0  0  0  0  0
  1  2  1  0  0  0  0
  2  3  2  0  0  0  0
  2  4  1  0  0  0  0
  4  5  1  0  0  0  0
  5  6  1  0  0  0  0
  6  7  1  0  0  0  0
  7  8  1  0  0  0  0
  4  9  1  0  0  0  0
  8  9  1  0  0  0  0
  1 10  1  0  0  0  0
  1 11  1  0  0  0  0
  1 12  1  0  0  0  0
  4 13  1  0  0  0  0
  5 14  1  0  0  0  0
  5 15  1  0  0  0  0
  6 16  1  0  0  0  0
  6 17  1  0  0  0  0
  7 18  1  0  0  0  0
  7 19  1  0  0  0  0
  8 20  1  0  0  0  0
  8 21  1  0  0  0  0
  9 22  1  0  0  0  0
  9 23  1  0  0  0  0
M  END
