 xtb: 6.7.1 (edcfbbe)
          04042521573D

 17 17  0     0  0            999 V2000
   -2.7703   -0.7795    0.0000 C   0  0  0  0  0  0  0  0  0  0  0  0
   -1.7988    0.2466    0.0000 O   0  0  0  0  0  0  0  0  0  0  0  0
   -0.4783   -0.1106    0.0000 C   0  0  0  0  0  0  0  0  0  0  0  0
   -0.0002   -1.4108    0.0000 C   0  0  0  0  0  0  0  0  0  0  0  0
    1.3654   -1.6594   -0.0000 C   0  0  0  0  0  0  0  0  0  0  0  0
    2.2630   -0.6126   -0.0000 C   0  0  0  0  0  0  0  0  0  0  0  0
    1.7972    0.6940   -0.0000 C   0  0  0  0  0  0  0  0  0  0  0  0
    0.4392    0.9579   -0.0000 C   0  0  0  0  0  0  0  0  0  0  0  0
   -0.0648    2.2239   -0.0000 O   0  0  0  0  0  0  0  0  0  0  0  0
   -3.7280   -0.2639    0.0000 H   0  0  0  0  0  0  0  0  0  0  0  0
   -2.6877   -1.4025    0.8949 H   0  0  0  0  0  0  0  0  0  0  0  0
   -2.6877   -1.4025   -0.8948 H   0  0  0  0  0  0  0  0  0  0  0  0
   -0.6863   -2.2418    0.0000 H   0  0  0  0  0  0  0  0  0  0  0  0
    1.7159   -2.6795   -0.0000 H   0  0  0  0  0  0  0  0  0  0  0  0
    3.3248   -0.8010   -0.0000 H   0  0  0  0  0  0  0  0  0  0  0  0
    2.4968    1.5168   -0.0000 H   0  0  0  0  0  0  0  0  0  0  0  0
    0.6590    2.8691   -0.0000 H   0  0  0  0  0  0  0  0  0  0  0  0
  1  2  1  0  0  0  0
  2  3  1  0  0  0  0
  3  4  4  0  0  0  0
  4  5  4  0  0  0  0
  5  6  4  0  0  0  0
  6  7  4  0  0  0  0
  3  8  4  0  0  0  0
  7  8  4  0  0  0  0
  8  9  1  0  0  0  0
  1 10  1  0  0  0  0
  1 11  1  0  0  0  0
  1 12  1  0  0  0  0
  4 13  1  0  0  0  0
  5 14  1  0  0  0  0
  6 15  1  0  0  0  0
  7 16  1  0  0  0  0
  9 17  1  0  0  0  0
M  END
