9
 xtb: 6.7.1 (edcfbbe)
C           -1.38591854188054       -0.57932859262701        0.00001532600276
S           -0.00000667470537        0.61223171065411        0.00000774325296
C            1.38591613914447       -0.57931585450509       -0.00001284718405
H           -1.35407967398520       -1.20801424909117        0.89471497054882
H           -1.35424323625318       -1.20784809358781       -0.89480668145942
H           -2.31750769883542       -0.00761190126569        0.00015572395452
H            1.35423151918515       -1.20785934167564        0.89479206834450
H            2.31749992193355       -0.00759069149938       -0.00012188760662
H            1.35409811921372       -1.20797801400618       -0.89472956996107
