11
 xtb: 6.7.1 (edcfbbe)
C            1.69073462495763       -1.07391714399383        0.15059248010351
C            1.04079905493759        0.26062942656814       -0.19067803487363
C           -0.45764462528502        0.34732816445879       -0.06304586344770
O           -1.07430900793539        1.39439592242648       -0.15549895409021
O           -1.15537277302031       -0.79275669504624        0.14477581515460
H            1.36095835638643       -1.87354978656397       -0.52207392135881
H            2.77485678315295       -0.99116846755115        0.04083732253523
H            1.48417329702526       -1.37013113815115        1.18406978810010
H            1.44136602334847        1.06610850891388        0.43355193577869
H            1.26229509688046        0.54707847634307       -1.22657855741891
H           -0.55860498044181       -1.55649548726052        0.19714571738365
