 xtb: 6.7.1 (edcfbbe)
          04052516073D

 27 27  0     0  0            999 V2000
   -2.6326    0.4657    1.2026 C   0  0  0  0  0  0  0  0  0  0  0  0
   -1.2405    0.2345    0.6232 C   0  0  0  0  0  0  0  0  0  0  0  0
   -0.5559   -0.0285    1.4376 H   0  0  0  0  0  0  0  0  0  0  0  0
   -0.6921    1.5024   -0.0615 C   0  0  0  0  0  0  0  0  0  0  0  0
    0.2805    1.1978   -1.2010 C   0  0  0  0  0  0  0  0  0  0  0  0
    1.1002   -0.0683   -0.9139 C   0  0  0  0  0  0  0  0  0  0  0  0
    1.8109   -0.2033   -1.7392 H   0  0  0  0  0  0  0  0  0  0  0  0
    0.1197   -1.2426   -0.9536 C   0  0  0  0  0  0  0  0  0  0  0  0
   -1.2076   -0.9591   -0.2971 C   0  0  0  0  0  0  0  0  0  0  0  0
   -2.1714   -1.6799   -0.4817 O   0  0  0  0  0  0  0  0  0  0  0  0
    1.9409    0.0606    0.3377 C   0  0  0  0  0  0  0  0  0  0  0  0
    1.8913   -0.7592    1.3765 C   0  0  0  0  0  0  0  0  0  0  0  0
    2.9181    1.2010    0.3116 C   0  0  0  0  0  0  0  0  0  0  0  0
   -3.3445    0.6665    0.4048 H   0  0  0  0  0  0  0  0  0  0  0  0
   -2.9712   -0.4199    1.7354 H   0  0  0  0  0  0  0  0  0  0  0  0
   -2.6204    1.3087    1.8878 H   0  0  0  0  0  0  0  0  0  0  0  0
   -1.5308    2.0797   -0.4535 H   0  0  0  0  0  0  0  0  0  0  0  0
   -0.2004    2.1115    0.6978 H   0  0  0  0  0  0  0  0  0  0  0  0
   -0.2813    1.0242   -2.1217 H   0  0  0  0  0  0  0  0  0  0  0  0
    0.9315    2.0543   -1.3696 H   0  0  0  0  0  0  0  0  0  0  0  0
   -0.0910   -1.5175   -1.9903 H   0  0  0  0  0  0  0  0  0  0  0  0
    0.5404   -2.1353   -0.4869 H   0  0  0  0  0  0  0  0  0  0  0  0
    2.5449   -0.6227    2.2218 H   0  0  0  0  0  0  0  0  0  0  0  0
    1.2164   -1.5944    1.4491 H   0  0  0  0  0  0  0  0  0  0  0  0
    2.4042    2.1483    0.4643 H   0  0  0  0  0  0  0  0  0  0  0  0
    3.6589    1.0887    1.0981 H   0  0  0  0  0  0  0  0  0  0  0  0
    3.4281    1.2473   -0.6483 H   0  0  0  0  0  0  0  0  0  0  0  0
  1  2  1  0  0  0  0
  2  3  1  0  0  0  0
  2  4  1  0  0  0  0
  4  5  1  0  0  0  0
  5  6  1  0  0  0  0
  6  7  1  0  0  0  0
  6  8  1  0  0  0  0
  2  9  1  0  0  0  0
  8  9  1  0  0  0  0
  9 10  2  0  0  0  0
  6 11  1  0  0  0  0
 11 12  2  0  0  0  0
 11 13  1  0  0  0  0
  1 14  1  0  0  0  0
  1 15  1  0  0  0  0
  1 16  1  0  0  0  0
  4 17  1  0  0  0  0
  4 18  1  0  0  0  0
  5 19  1  0  0  0  0
  5 20  1  0  0  0  0
  8 21  1  0  0  0  0
  8 22  1  0  0  0  0
 12 23  1  0  0  0  0
 12 24  1  0  0  0  0
 13 25  1  0  0  0  0
 13 26  1  0  0  0  0
 13 27  1  0  0  0  0
M  END
