19
CONF1
C -2.4464792673 1.1098040589 0.4979480118
C -1.7174054267 -0.0918528497 -0.0293875422
C -2.3708679498 -1.1504902961 -0.4976898211
C -0.2449719009 -0.0383853215 -0.0178679399
C 0.5046200385 -1.1837622110 0.2480743319
C 1.8860832519 -1.1408997962 0.2616590291
C 2.5490518158 0.0486050229 0.0084835311
C 1.8173579837 1.1946624836 -0.2528283629
C 0.4351367502 1.1539471062 -0.2601500509
H -2.4178277977 1.9196498326 -0.2298893563
H -3.4874712824 0.8667452911 0.6924957830
H -1.9834429334 1.4641083614 1.4166240331
H -1.8610349010 -2.0020910778 -0.9138813307
H -3.4468937450 -1.1914969412 -0.5017111463
H -0.0042924294 -2.1109717176 0.4652869766
H 2.4485985972 -2.0380471509 0.4748362074
H 3.6281560253 0.0824226625 0.0184329437
H 2.3263866413 2.1265833445 -0.4506309328
H -0.1181830575 2.0553800859 -0.4739293818
19
CONF2
C -2.4121821310 -1.0188273407 0.7934319581
C -1.7205980440 0.0169378523 -0.0483814839
C -2.4531689161 0.8686815748 -0.7644459282
C -0.2471530634 0.0324817626 -0.0323040658
C 0.4710573090 -0.8697766474 0.7565588283
C 1.8537516567 -0.8633957947 0.7794892589
C 2.5638886287 0.0449664690 0.0147946616
C 1.8707900732 0.9473511927 -0.7748506952
C 0.4897916114 0.9403800201 -0.7979453506
H -2.1591512896 -0.8898005718 1.8443730207
H -3.4897655683 -0.9293217838 0.6868879974
H -2.1178932661 -2.0212132361 0.4874203572
H -2.0351248376 1.6377078919 -1.3880436628
H -3.5288179708 0.8227247577 -0.7482577473
H -0.0460514502 -1.5921596487 1.3665924792
H 2.3794042106 -1.5742695850 1.4002126688
H 3.6433002558 0.0505793962 0.0325797169
H 2.4107356819 1.6624593906 -1.3781796330
H -0.0161589765 1.6559187956 -1.4258751268
19
CONF3
C -2.4309201616 -0.9191662865 -0.8948724860
C -1.7169029586 0.0120542002 0.0462215850
C -2.3852446684 0.8151460341 0.8670279647
C -0.2426668984 0.0164837057 0.0202628935
C 0.4792516462 -1.1747557622 0.0332495123
C 1.8620111436 -1.1614610641 0.0271869207
C 2.5481350708 0.0411437067 -0.0023480570
C 1.8413269893 1.2321626333 -0.0170165367
C 0.4587753131 1.2199536014 -0.0016531167
H -2.9171869223 -0.3397805338 -1.6785630767
H -1.7400947307 -1.6108860203 -1.3673729851
H -3.1995288731 -1.4830829083 -0.3710568342
H -1.8824596216 1.4799386851 1.5481696546
H -3.4617819953 0.8205190561 0.8970292576
H -0.0442265938 -2.1187090005 0.0738565509
H 2.4070601348 -2.0937999283 0.0458102688
H 3.6277184694 0.0501107033 -0.0132738710
H 2.3697851068 2.1738110199 -0.0419440807
H -0.0900689117 2.1499309236 -0.0228689960
19
CONF4
C -2.3771584024 0.3517836932 -1.2203542566
C -1.7262260255 -0.0592012473 0.0654187522
C -2.4009406251 -0.4281145386 1.1423050340
C -0.2428497071 -0.0231592693 0.0521573523
C 0.4845435261 -1.1278689429 -0.3744506511
C 1.8673986139 -1.0877768667 -0.4030601888
C 2.5376923936 0.0582602097 -0.0093540678
C 1.8196360214 1.1631919782 0.4163096631
C 0.4367810326 1.1230786773 0.4466190156
H -2.0433147429 -0.2968283791 -2.0292314930
H -3.4595526848 0.2990023939 -1.1427891302
H -2.0852795805 1.3702384609 -1.4736403125
H -1.9006667224 -0.7178808815 2.0510438661
H -3.4776458284 -0.4558679940 1.1555203417
H -0.0397558344 -2.0223493316 -0.6787275154
H 2.4232810293 -1.9528255204 -0.7334198176
H 3.6166987745 0.0897975603 -0.0331421850
H 2.3380575272 2.0586987741 0.7257266981
H -0.1251799855 1.9832124048 0.7811822862
