19
CONF4
C -2.4207767223 -0.3115232137 -1.2380268364
C -1.7224741674 0.0415640457 0.0466465265
C -2.4196531088 0.3214979490 1.1579019662
C -0.2399471690 0.0500075453 0.0371685452
C 0.4790016782 -0.7683510551 -0.8477064572
C 1.8710158114 -0.7738825137 -0.8472041003
C 2.5776141395 0.0500713209 0.0244303602
C 1.8773113866 0.8834575853 0.8958631403
C 0.4878378539 0.8855760050 0.9001875331
H -2.2581705925 -1.3630307595 -1.5026688147
H -3.4976699573 -0.1515266564 -1.1478675999
H -2.0406128647 0.2890118113 -2.0724481885
H -1.9342476918 0.5330361886 2.1057940511
H -3.5056444817 0.3273527025 1.1444773765
H -0.0500491858 -1.4209582073 -1.5339411227
H 2.4044277492 -1.4244097206 -1.5337622505
H 3.6629462369 0.0517751190 0.0185666975
H 2.4168704933 1.5453015554 1.5665037205
H -0.0422445469 1.5605776412 1.5646386601
19
CONF1
C -2.4641285551 1.1407709424 0.4179250871
C -1.7254656986 -0.0975687629 -0.0100912860
C -2.3890154562 -1.1969195129 -0.3968095844
C -0.2443523301 -0.0467161799 -0.0034497022
C 0.5213920460 -1.2061936376 0.1999896290
C 1.9098979913 -1.1586663971 0.1897941914
C 2.5715125016 0.0511300262 -0.0164575366
C 1.8271260996 1.2123810790 -0.2030273389
C 0.4358611139 1.1664287291 -0.1887737199
H -2.3107271166 1.9609833051 -0.2918065652
H -3.5367176702 0.9466566003 0.4783244100
H -2.1110689617 1.4940084572 1.3926946026
H -1.8778515183 -2.0847684265 -0.7553701544
H -3.4746565192 -1.2225693856 -0.3838808899
H 0.0222561123 -2.1507225557 0.3908591494
H 2.4788174457 -2.0681554789 0.3566357001
H 3.6561940326 0.0882982821 -0.0208597286
H 2.3300633375 2.1617963165 -0.3594143509
H -0.1226047467 2.0837551483 -0.3404533165
19
CONF3
C -2.4311011647 -1.0585816839 -0.7204273363
C -1.7299743493 0.0195278197 0.0591630099
C -2.4249779518 0.9111301336 0.7810176370
C -0.2483491486 0.0428954215 0.0142948929
C 0.4840882599 -1.1322373498 -0.2136483819
C 1.8759983077 -1.1155991766 -0.2375256972
C 2.5688602949 0.0772435373 -0.0511736595
C 1.8545602188 1.2569449054 0.1553210541
C 0.4655735731 1.2404752116 0.1846275716
H -2.0748814628 -1.0943245294 -1.7551232579
H -2.2467756478 -2.0477043749 -0.2870343415
H -3.5095291940 -0.8915350619 -0.7237249738
H -1.9375389849 1.6657674917 1.3902003232
H -3.5106405906 0.8899967484 0.7923294620
H -0.0334738912 -2.0743536915 -0.3587649944
H 2.4198532379 -2.0403553579 -0.4047932681
H 3.6538994786 0.0912121610 -0.0769612706
H 2.3826029057 2.1972668891 0.2816484255
H -0.0751807189 2.1718651082 0.3182480742
19
CONF2
C -2.4199151409 -1.0232354625 0.7939627535
C -1.7321402449 0.0173641133 -0.0486242295
C -2.4679731484 0.8787640616 -0.7694034374
C -0.2473463787 0.0378362479 -0.0364269706
C 0.4702111946 -0.8701126796 0.7595887363
C 1.8630947670 -0.8669806936 0.7854465281
C 2.5787398476 0.0439978205 0.0166017233
C 1.8834354208 0.9531649580 -0.7814842416
C 0.4957130493 0.9496723280 -0.8085170506
H -2.1644395589 -0.9109570916 1.8539552519
H -3.5036707175 -0.9395799685 0.6923582008
H -2.1230225931 -2.0364133706 0.4997398519
H -2.0358529069 1.6539760464 -1.3926520779
H -3.5520257891 0.8231132491 -0.7460867962
H -0.0568531481 -1.5929173722 1.3711706249
H 2.3871549159 -1.5829356689 1.4112935782
H 3.6639858770 0.0478691500 0.0355051763
H 2.4273903798 1.6703848281 -1.3886893349
H -0.0098312386 1.6684135282 -1.4436811978
