 xtb: 6.7.1 (edcfbbe)
          04062520053D

 27 27  0     0  0            999 V2000
   -2.6072    0.6485    1.2013 C   0  0  0  0  0  0  0  0  0  0  0  0
   -1.4539    0.4156    0.2734 C   0  0  0  0  0  0  0  0  0  0  0  0
   -0.7832    1.3979   -0.3105 C   0  0  0  0  0  0  0  0  0  0  0  0
    0.3908    1.1792   -1.2096 C   0  0  0  0  0  0  0  0  0  0  0  0
    1.1551   -0.0944   -0.8129 C   0  0  0  0  0  0  0  0  0  0  0  0
    1.8721   -0.3182   -1.6116 H   0  0  0  0  0  0  0  0  0  0  0  0
    0.1768   -1.2727   -0.7571 C   0  0  0  0  0  0  0  0  0  0  0  0
   -1.1256   -1.0417    0.0334 C   0  0  0  0  0  0  0  0  0  0  0  0
   -1.0782   -1.5541    1.0026 H   0  0  0  0  0  0  0  0  0  0  0  0
   -2.2199   -1.6921   -0.6096 O   0  0  0  0  0  0  0  0  0  0  0  0
    1.9680    0.1475    0.4382 C   0  0  0  0  0  0  0  0  0  0  0  0
    1.5635   -0.1170    1.6695 C   0  0  0  0  0  0  0  0  0  0  0  0
    3.3249    0.7359    0.1778 C   0  0  0  0  0  0  0  0  0  0  0  0
   -3.4310   -0.0159    0.9455 H   0  0  0  0  0  0  0  0  0  0  0  0
   -2.9448    1.6799    1.1548 H   0  0  0  0  0  0  0  0  0  0  0  0
   -2.3087    0.4247    2.2257 H   0  0  0  0  0  0  0  0  0  0  0  0
   -1.0721    2.4244   -0.1303 H   0  0  0  0  0  0  0  0  0  0  0  0
    0.0489    1.0837   -2.2450 H   0  0  0  0  0  0  0  0  0  0  0  0
    1.0515    2.0462   -1.1648 H   0  0  0  0  0  0  0  0  0  0  0  0
   -0.1110   -1.5056   -1.7859 H   0  0  0  0  0  0  0  0  0  0  0  0
    0.6874   -2.1507   -0.3592 H   0  0  0  0  0  0  0  0  0  0  0  0
   -2.3782   -1.2610   -1.4608 H   0  0  0  0  0  0  0  0  0  0  0  0
    2.1929    0.0926    2.5188 H   0  0  0  0  0  0  0  0  0  0  0  0
    0.6050   -0.5452    1.8921 H   0  0  0  0  0  0  0  0  0  0  0  0
    3.9499    0.0107   -0.3424 H   0  0  0  0  0  0  0  0  0  0  0  0
    3.2473    1.6187   -0.4541 H   0  0  0  0  0  0  0  0  0  0  0  0
    3.8151    1.0123    1.1069 H   0  0  0  0  0  0  0  0  0  0  0  0
  1  2  1  0  0  0  0
  2  3  2  0  0  0  0
  3  4  1  0  0  0  0
  4  5  1  0  0  0  0
  5  6  1  0  0  0  0
  5  7  1  0  0  0  0
  2  8  1  0  0  0  0
  7  8  1  0  0  0  0
  8  9  1  0  0  0  0
  8 10  1  0  0  0  0
  5 11  1  0  0  0  0
 11 12  2  0  0  0  0
 11 13  1  0  0  0  0
  1 14  1  0  0  0  0
  1 15  1  0  0  0  0
  1 16  1  0  0  0  0
  3 17  1  0  0  0  0
  4 18  1  0  0  0  0
  4 19  1  0  0  0  0
  7 20  1  0  0  0  0
  7 21  1  0  0  0  0
 10 22  1  0  0  0  0
 12 23  1  0  0  0  0
 12 24  1  0  0  0  0
 13 25  1  0  0  0  0
 13 26  1  0  0  0  0
 13 27  1  0  0  0  0
M  END
