22
 xtb: 6.7.1 (edcfbbe)
C            1.67357547983290        1.37151745471123       -1.12806066941911
C            3.04950301738339        1.53219292924756       -1.20692938256875
C            3.88339838733281        0.78188689601237       -0.38566867366031
C            3.33156167884281       -0.12926393173215        0.51800157255839
C            1.95515670108574       -0.29301479441329        0.59433040769302
C            1.11634777370209        0.45442440306391       -0.23375469871952
C           -0.35529904046708        0.33059581630385       -0.13204257608399
C           -1.09824420949882        1.48369377896473        0.11985568265867
C           -2.47771250818271        1.43691124352495        0.23169736119556
C           -3.16282238091522        0.22754039832687        0.09662148412983
C           -2.43267846326163       -0.93781400003292       -0.17092188306189
C           -1.03908844788692       -0.88165238267075       -0.28940270406312
Cl          -0.16500062210146       -2.32902225594121       -0.70400578065969
Cl          -3.26612802341283       -2.44245565873264       -0.37138245882646
Cl          -4.88467621134970        0.16876225245133        0.24975148838333
Cl          -3.34131571609691        2.91244766115157        0.55674776051314
Cl           4.34894202838529       -1.07536796109114        1.57486141368671
Cl           5.60974704240973        1.00068560979378       -0.50151235581429
H            1.02936616497280        1.95580484627157       -1.77607971383251
H            3.47989146890887        2.23768400354424       -1.90843318773256
H            1.54217420507600       -0.98885269353647        1.31519138483576
H           -0.58166379526543        2.42807863612177        0.24591225612099
