11
 xtb: 6.7.1 (edcfbbe)
C           -2.76659123622773        0.10026379959146       -0.64801994401367
O           -1.32436619849803       -0.10521882628531       -0.77242402751867
C           -0.61646940633126        0.15614739142546        0.30993847079622
O           -1.01360100404277        0.53585997205121        1.38496972062514
C            0.88450283758486       -0.09152464351813        0.01653820553216
F            1.31368805383075        0.70431152347353       -0.98334591912223
F            1.62031593218267        0.16566513568564        1.10373980374235
F            1.10053301345690       -1.37056364101499       -0.34887813978262
H           -3.15694599660785       -0.54002221887302        0.14479936655145
H           -3.17496028809699       -0.18192607959395       -1.61597101844385
H           -2.96273963126174        1.15163723667289       -0.43052474206561
