 xtb: 6.7.1 (edcfbbe)
          04062508443D

 31 32  0     0  0            999 V2000
    1.5744    2.5094    1.0750 C   0  0  0  0  0  0  0  0  0  0  0  0
    1.8096    1.5973   -0.1276 C   0  0  0  0  0  0  0  0  0  0  0  0
    2.8396    0.4837    0.1907 C   0  0  0  0  0  0  0  0  0  0  0  0
    2.0113   -0.7636    0.1491 C   0  0  0  0  0  0  0  0  0  0  0  0
    2.3400   -2.0822    0.3708 C   0  0  0  0  0  0  0  0  0  0  0  0
    1.3486   -3.0481    0.2506 C   0  0  0  0  0  0  0  0  0  0  0  0
    0.0507   -2.6929   -0.0710 C   0  0  0  0  0  0  0  0  0  0  0  0
   -0.2832   -1.3637   -0.2974 C   0  0  0  0  0  0  0  0  0  0  0  0
    0.7095   -0.4002   -0.1945 C   0  0  0  0  0  0  0  0  0  0  0  0
    0.5507    0.9226   -0.4160 O   0  0  0  0  0  0  0  0  0  0  0  0
   -1.5926   -1.0289   -0.6531 O   0  0  0  0  0  0  0  0  0  0  0  0
   -2.2374   -0.1235    0.1355 C   0  0  0  0  0  0  0  0  0  0  0  0
   -1.8152    0.2572    1.2112 O   0  0  0  0  0  0  0  0  0  0  0  0
   -3.3897    0.2412   -0.4315 N   0  0  0  0  0  0  0  0  0  0  0  0
   -4.3208    1.1559    0.1891 C   0  0  0  0  0  0  0  0  0  0  0  0
    2.1948    2.4033   -1.3651 C   0  0  0  0  0  0  0  0  0  0  0  0
    0.8048    3.2395    0.8392 H   0  0  0  0  0  0  0  0  0  0  0  0
    1.2320    1.9189    1.9225 H   0  0  0  0  0  0  0  0  0  0  0  0
    2.4925    3.0259    1.3377 H   0  0  0  0  0  0  0  0  0  0  0  0
    3.6362    0.4536   -0.5539 H   0  0  0  0  0  0  0  0  0  0  0  0
    3.2912    0.6316    1.1715 H   0  0  0  0  0  0  0  0  0  0  0  0
    3.3487   -2.3581    0.6328 H   0  0  0  0  0  0  0  0  0  0  0  0
    1.5859   -4.0859    0.4186 H   0  0  0  0  0  0  0  0  0  0  0  0
   -0.7252   -3.4367   -0.1548 H   0  0  0  0  0  0  0  0  0  0  0  0
   -3.6209   -0.1565   -1.3291 H   0  0  0  0  0  0  0  0  0  0  0  0
   -4.4692    2.0285   -0.4457 H   0  0  0  0  0  0  0  0  0  0  0  0
   -3.8956    1.4678    1.1409 H   0  0  0  0  0  0  0  0  0  0  0  0
   -5.2764    0.6622    0.3620 H   0  0  0  0  0  0  0  0  0  0  0  0
    3.1202    2.9401   -1.1806 H   0  0  0  0  0  0  0  0  0  0  0  0
    1.4083    3.1156   -1.5994 H   0  0  0  0  0  0  0  0  0  0  0  0
    2.3253    1.7397   -2.2167 H   0  0  0  0  0  0  0  0  0  0  0  0
  1  2  1  0  0  0  0
  2  3  1  0  0  0  0
  3  4  1  0  0  0  0
  4  5  4  0  0  0  0
  5  6  4  0  0  0  0
  6  7  4  0  0  0  0
  7  8  4  0  0  0  0
  4  9  4  0  0  0  0
  8  9  4  0  0  0  0
  2 10  1  0  0  0  0
  9 10  1  0  0  0  0
  8 11  1  0  0  0  0
 11 12  1  0  0  0  0
 12 13  2  0  0  0  0
 12 14  4  0  0  0  0
 14 15  1  0  0  0  0
  2 16  1  0  0  0  0
  1 17  1  0  0  0  0
  1 18  1  0  0  0  0
  1 19  1  0  0  0  0
  3 20  1  0  0  0  0
  3 21  1  0  0  0  0
  5 22  1  0  0  0  0
  6 23  1  0  0  0  0
  7 24  1  0  0  0  0
 14 25  1  0  0  0  0
 15 26  1  0  0  0  0
 15 27  1  0  0  0  0
 15 28  1  0  0  0  0
 16 29  1  0  0  0  0
 16 30  1  0  0  0  0
 16 31  1  0  0  0  0
M  END
