 xtb: 6.7.1 (edcfbbe)
          04052516073D

 27 27  0     0  0            999 V2000
   -2.9712    0.6555   -0.7131 C   0  0  0  0  0  0  0  0  0  0  0  0
   -1.9430    0.4829    0.4077 C   0  0  0  0  0  0  0  0  0  0  0  0
   -2.4833    0.5496    1.3608 H   0  0  0  0  0  0  0  0  0  0  0  0
   -0.8453    1.5494    0.3800 C   0  0  0  0  0  0  0  0  0  0  0  0
    0.2105    1.2317   -0.6764 C   0  0  0  0  0  0  0  0  0  0  0  0
    0.8489   -0.1633   -0.4838 C   0  0  0  0  0  0  0  0  0  0  0  0
    0.7366   -0.7285   -1.4144 H   0  0  0  0  0  0  0  0  0  0  0  0
    0.1252   -0.9626    0.6186 C   0  0  0  0  0  0  0  0  0  0  0  0
   -1.3536   -0.9107    0.3780 C   0  0  0  0  0  0  0  0  0  0  0  0
   -2.0270   -1.9038    0.1752 O   0  0  0  0  0  0  0  0  0  0  0  0
    2.3271   -0.0571   -0.1896 C   0  0  0  0  0  0  0  0  0  0  0  0
    3.2267   -0.4652   -1.0713 C   0  0  0  0  0  0  0  0  0  0  0  0
    2.7259    0.5401    1.1261 C   0  0  0  0  0  0  0  0  0  0  0  0
   -2.4823    0.6574   -1.6840 H   0  0  0  0  0  0  0  0  0  0  0  0
   -3.6788   -0.1700   -0.6914 H   0  0  0  0  0  0  0  0  0  0  0  0
   -3.5128    1.5892   -0.5905 H   0  0  0  0  0  0  0  0  0  0  0  0
   -1.2950    2.5188    0.1610 H   0  0  0  0  0  0  0  0  0  0  0  0
   -0.3763    1.6214    1.3619 H   0  0  0  0  0  0  0  0  0  0  0  0
   -0.2529    1.2773   -1.6623 H   0  0  0  0  0  0  0  0  0  0  0  0
    0.9870    1.9974   -0.6546 H   0  0  0  0  0  0  0  0  0  0  0  0
    0.4678   -1.9981    0.6161 H   0  0  0  0  0  0  0  0  0  0  0  0
    0.3296   -0.5199    1.5927 H   0  0  0  0  0  0  0  0  0  0  0  0
    4.2841   -0.3753   -0.8881 H   0  0  0  0  0  0  0  0  0  0  0  0
    2.9458   -0.9067   -2.0127 H   0  0  0  0  0  0  0  0  0  0  0  0
    3.7720    0.8327    1.1080 H   0  0  0  0  0  0  0  0  0  0  0  0
    2.1209    1.4127    1.3593 H   0  0  0  0  0  0  0  0  0  0  0  0
    2.5951   -0.1891    1.9246 H   0  0  0  0  0  0  0  0  0  0  0  0
  1  2  1  0  0  0  0
  2  3  1  0  0  0  0
  2  4  1  0  0  0  0
  4  5  1  0  0  0  0
  5  6  1  0  0  0  0
  6  7  1  0  0  0  0
  6  8  1  0  0  0  0
  2  9  1  0  0  0  0
  8  9  1  0  0  0  0
  9 10  2  0  0  0  0
  6 11  1  0  0  0  0
 11 12  2  0  0  0  0
 11 13  1  0  0  0  0
  1 14  1  0  0  0  0
  1 15  1  0  0  0  0
  1 16  1  0  0  0  0
  4 17  1  0  0  0  0
  4 18  1  0  0  0  0
  5 19  1  0  0  0  0
  5 20  1  0  0  0  0
  8 21  1  0  0  0  0
  8 22  1  0  0  0  0
 12 23  1  0  0  0  0
 12 24  1  0  0  0  0
 13 25  1  0  0  0  0
 13 26  1  0  0  0  0
 13 27  1  0  0  0  0
M  END
