 xtb: 6.7.1 (edcfbbe)
          04062518003D

 24 24  0     0  0            999 V2000
   -2.1958   -1.0436   -0.4124 C   0  0  0  0  0  0  0  0  0  0  0  0
   -1.1763   -0.2107    0.3804 C   0  0  0  0  0  0  0  0  0  0  0  0
   -1.6733    0.2157    1.2607 H   0  0  0  0  0  0  0  0  0  0  0  0
   -0.5952    0.9447   -0.4530 C   0  0  0  0  0  0  0  0  0  0  0  0
   -0.4229    0.6032   -1.4867 H   0  0  0  0  0  0  0  0  0  0  0  0
    0.7551    1.3350    0.1620 C   0  0  0  0  0  0  0  0  0  0  0  0
    0.6239    1.4999    1.2376 H   0  0  0  0  0  0  0  0  0  0  0  0
    1.7310    0.1658   -0.0502 C   0  0  0  0  0  0  0  0  0  0  0  0
    2.0719    0.1747   -1.0980 H   0  0  0  0  0  0  0  0  0  0  0  0
    1.0258   -1.1841    0.1824 C   0  0  0  0  0  0  0  0  0  0  0  0
    1.6755   -1.7871    0.8301 H   0  0  0  0  0  0  0  0  0  0  0  0
   -0.1640   -1.0666    0.9187 O   0  0  0  0  0  0  0  0  0  0  0  0
    0.8223   -1.7855   -1.0600 O   0  0  0  0  0  0  0  0  0  0  0  0
    2.8315    0.2383    0.8181 O   0  0  0  0  0  0  0  0  0  0  0  0
    1.2851    2.5314   -0.3419 O   0  0  0  0  0  0  0  0  0  0  0  0
   -1.4295    2.0736   -0.4350 O   0  0  0  0  0  0  0  0  0  0  0  0
   -2.8890   -1.9451    0.4145 O   0  0  0  0  0  0  0  0  0  0  0  0
   -1.6750   -1.5764   -1.2187 H   0  0  0  0  0  0  0  0  0  0  0  0
   -2.9568   -0.3935   -0.8477 H   0  0  0  0  0  0  0  0  0  0  0  0
    0.7065   -2.7425   -0.9616 H   0  0  0  0  0  0  0  0  0  0  0  0
    3.2072    1.1312    0.7676 H   0  0  0  0  0  0  0  0  0  0  0  0
    1.1376    2.5852   -1.2969 H   0  0  0  0  0  0  0  0  0  0  0  0
   -2.2687    1.8803   -0.8747 H   0  0  0  0  0  0  0  0  0  0  0  0
   -2.2449   -2.4084    0.9700 H   0  0  0  0  0  0  0  0  0  0  0  0
  1  2  1  0  0  0  0
  2  3  1  0  0  0  0
  2  4  1  0  0  0  0
  4  5  1  0  0  0  0
  4  6  1  0  0  0  0
  6  7  1  0  0  0  0
  6  8  1  0  0  0  0
  8  9  1  0  0  0  0
  8 10  1  0  0  0  0
 10 11  1  0  0  0  0
  2 12  1  0  0  0  0
 10 12  1  0  0  0  0
 10 13  1  0  0  0  0
  8 14  1  0  0  0  0
  6 15  1  0  0  0  0
  4 16  1  0  0  0  0
  1 17  1  0  0  0  0
  1 18  1  0  0  0  0
  1 19  1  0  0  0  0
 13 20  1  0  0  0  0
 14 21  1  0  0  0  0
 15 22  1  0  0  0  0
 16 23  1  0  0  0  0
 17 24  1  0  0  0  0
M  END
