 xtb: 6.7.1 (edcfbbe)
          04062505073D

 29 29  0     0  0            999 V2000
   -3.3225   -0.1803   -0.8978 C   0  0  0  0  0  0  0  0  0  0  0  0
   -1.8357   -0.3434   -0.5971 C   0  0  0  0  0  0  0  0  0  0  0  0
   -1.3776   -0.9041   -1.4176 H   0  0  0  0  0  0  0  0  0  0  0  0
   -1.5963   -1.1165    0.6982 C   0  0  0  0  0  0  0  0  0  0  0  0
   -0.1141   -1.4592    0.8214 C   0  0  0  0  0  0  0  0  0  0  0  0
    0.7962   -0.2247    0.6387 C   0  0  0  0  0  0  0  0  0  0  0  0
    1.4421   -0.0990    1.5143 H   0  0  0  0  0  0  0  0  0  0  0  0
   -0.0264    1.0369    0.5260 C   0  0  0  0  0  0  0  0  0  0  0  0
    0.2198    2.0219    1.1989 O   0  0  0  0  0  0  0  0  0  0  0  0
   -1.1578    1.0276   -0.4658 C   0  0  0  0  0  0  0  0  0  0  0  0
    1.7194   -0.3510   -0.5980 C   0  0  0  0  0  0  0  0  0  0  0  0
    2.4572    0.9592   -0.8717 C   0  0  0  0  0  0  0  0  0  0  0  0
    2.7437   -1.4641   -0.3840 C   0  0  0  0  0  0  0  0  0  0  0  0
   -3.4666    0.4055   -1.8022 H   0  0  0  0  0  0  0  0  0  0  0  0
   -3.7889   -1.1521   -1.0387 H   0  0  0  0  0  0  0  0  0  0  0  0
   -3.8236    0.3246   -0.0748 H   0  0  0  0  0  0  0  0  0  0  0  0
   -1.9165   -0.5065    1.5470 H   0  0  0  0  0  0  0  0  0  0  0  0
   -2.1810   -2.0373    0.7042 H   0  0  0  0  0  0  0  0  0  0  0  0
    0.0757   -1.9086    1.7962 H   0  0  0  0  0  0  0  0  0  0  0  0
    0.1247   -2.2032    0.0609 H   0  0  0  0  0  0  0  0  0  0  0  0
   -1.8765    1.7871   -0.1487 H   0  0  0  0  0  0  0  0  0  0  0  0
   -0.7538    1.3530   -1.4272 H   0  0  0  0  0  0  0  0  0  0  0  0
    1.1013   -0.5959   -1.4672 H   0  0  0  0  0  0  0  0  0  0  0  0
    3.1438    0.8354   -1.7056 H   0  0  0  0  0  0  0  0  0  0  0  0
    3.0289    1.2605    0.0038 H   0  0  0  0  0  0  0  0  0  0  0  0
    1.7691    1.7668   -1.1117 H   0  0  0  0  0  0  0  0  0  0  0  0
    3.3597   -1.5755   -1.2727 H   0  0  0  0  0  0  0  0  0  0  0  0
    2.2656   -2.4173   -0.1789 H   0  0  0  0  0  0  0  0  0  0  0  0
    3.3924   -1.2194    0.4540 H   0  0  0  0  0  0  0  0  0  0  0  0
  1  2  1  0  0  0  0
  2  3  1  0  0  0  0
  2  4  1  0  0  0  0
  4  5  1  0  0  0  0
  5  6  1  0  0  0  0
  6  7  1  0  0  0  0
  6  8  1  0  0  0  0
  8  9  2  0  0  0  0
  2 10  1  0  0  0  0
  8 10  1  0  0  0  0
  6 11  1  0  0  0  0
 11 12  1  0  0  0  0
 11 13  1  0  0  0  0
  1 14  1  0  0  0  0
  1 15  1  0  0  0  0
  1 16  1  0  0  0  0
  4 17  1  0  0  0  0
  4 18  1  0  0  0  0
  5 19  1  0  0  0  0
  5 20  1  0  0  0  0
 10 21  1  0  0  0  0
 10 22  1  0  0  0  0
 11 23  1  0  0  0  0
 12 24  1  0  0  0  0
 12 25  1  0  0  0  0
 12 26  1  0  0  0  0
 13 27  1  0  0  0  0
 13 28  1  0  0  0  0
 13 29  1  0  0  0  0
M  END
