 xtb: 6.7.1 (edcfbbe)
          04062511353D

 27 27  0     0  0            999 V2000
    3.7296   -0.2511   -0.1509 C   0  0  0  0  0  0  0  0  0  0  0  0
    2.2453   -0.1780   -0.0664 C   0  0  0  0  0  0  0  0  0  0  0  0
    1.5548    0.9094   -0.4399 C   0  0  0  0  0  0  0  0  0  0  0  0
    0.1062    1.0097   -0.3815 C   0  0  0  0  0  0  0  0  0  0  0  0
   -0.4627    2.0791   -0.5808 O   0  0  0  0  0  0  0  0  0  0  0  0
   -0.6409   -0.2802   -0.0774 C   0  0  0  0  0  0  0  0  0  0  0  0
   -0.6142   -0.8723   -1.0023 H   0  0  0  0  0  0  0  0  0  0  0  0
    0.1495   -1.0433    0.9902 C   0  0  0  0  0  0  0  0  0  0  0  0
    1.5413   -1.3831    0.4656 C   0  0  0  0  0  0  0  0  0  0  0  0
   -2.1164   -0.0026    0.2730 C   0  0  0  0  0  0  0  0  0  0  0  0
   -2.8937    0.3395   -0.9997 C   0  0  0  0  0  0  0  0  0  0  0  0
   -2.7973   -1.1759    0.9760 C   0  0  0  0  0  0  0  0  0  0  0  0
    4.1520   -0.3040    0.8516 H   0  0  0  0  0  0  0  0  0  0  0  0
    4.1409    0.6154   -0.6599 H   0  0  0  0  0  0  0  0  0  0  0  0
    4.0276   -1.1554   -0.6778 H   0  0  0  0  0  0  0  0  0  0  0  0
    2.0615    1.7984   -0.7904 H   0  0  0  0  0  0  0  0  0  0  0  0
    0.2308   -0.4258    1.8878 H   0  0  0  0  0  0  0  0  0  0  0  0
   -0.3666   -1.9649    1.2525 H   0  0  0  0  0  0  0  0  0  0  0  0
    2.1410   -1.8457    1.2509 H   0  0  0  0  0  0  0  0  0  0  0  0
    1.4521   -2.1111   -0.3476 H   0  0  0  0  0  0  0  0  0  0  0  0
   -2.1446    0.8709    0.9352 H   0  0  0  0  0  0  0  0  0  0  0  0
   -2.9136   -0.5153   -1.6731 H   0  0  0  0  0  0  0  0  0  0  0  0
   -2.4339    1.1803   -1.5125 H   0  0  0  0  0  0  0  0  0  0  0  0
   -3.9182    0.6101   -0.7557 H   0  0  0  0  0  0  0  0  0  0  0  0
   -3.8586   -0.9639    1.0820 H   0  0  0  0  0  0  0  0  0  0  0  0
   -2.3893   -1.3385    1.9692 H   0  0  0  0  0  0  0  0  0  0  0  0
   -2.6901   -2.0860    0.3904 H   0  0  0  0  0  0  0  0  0  0  0  0
  1  2  1  0  0  0  0
  2  3  2  0  0  0  0
  3  4  1  0  0  0  0
  4  5  2  0  0  0  0
  4  6  1  0  0  0  0
  6  7  1  0  0  0  0
  6  8  1  0  0  0  0
  2  9  1  0  0  0  0
  8  9  1  0  0  0  0
  6 10  1  0  0  0  0
 10 11  1  0  0  0  0
 10 12  1  0  0  0  0
  1 13  1  0  0  0  0
  1 14  1  0  0  0  0
  1 15  1  0  0  0  0
  3 16  1  0  0  0  0
  8 17  1  0  0  0  0
  8 18  1  0  0  0  0
  9 19  1  0  0  0  0
  9 20  1  0  0  0  0
 10 21  1  0  0  0  0
 11 22  1  0  0  0  0
 11 23  1  0  0  0  0
 11 24  1  0  0  0  0
 12 25  1  0  0  0  0
 12 26  1  0  0  0  0
 12 27  1  0  0  0  0
M  END
