12
CONF1
C -0.6962577870 -1.2138265521 -0.0000131576
C 0.6962754563 -1.2138370841 -0.0000067542
C 1.3714160494 -0.0000187977 0.0000195635
C 0.6962978666 1.2138118860 0.0000216200
C -0.6962356438 1.2138265344 -0.0000133840
C -1.3713778725 0.0000060988 -0.0000156198
Br -3.2871202754 0.0000242732 -0.0000869329
Br 3.2871555242 -0.0000387228 0.0000782067
H -1.2329630700 -2.1552877318 -0.0000360438
H 1.2329555618 -2.1553101473 0.0000115489
H 1.2329958350 2.1552748120 0.0000324465
H -1.2329221534 2.1552970209 -0.0000120002
