 xtb: 6.7.1 (edcfbbe)
          04052503093D

 20 20  0     0  0            999 V2000
   -3.6476    0.0320   -0.0539 C   0  0  0  0  0  0  0  0  0  0  0  0
   -2.1538    0.0136   -0.0042 C   0  0  0  0  0  0  0  0  0  0  0  0
   -1.4366    1.1880    0.2064 C   0  0  0  0  0  0  0  0  0  0  0  0
   -0.0562    1.1920    0.2160 C   0  0  0  0  0  0  0  0  0  0  0  0
    0.6522    0.0051    0.0269 C   0  0  0  0  0  0  0  0  0  0  0  0
   -0.0676   -1.1786   -0.1539 C   0  0  0  0  0  0  0  0  0  0  0  0
   -1.4461   -1.1715   -0.1814 C   0  0  0  0  0  0  0  0  0  0  0  0
    2.1270   -0.0779    0.0330 C   0  0  0  0  0  0  0  0  0  0  0  0
    2.6929   -1.1168    0.3495 O   0  0  0  0  0  0  0  0  0  0  0  0
    2.9179    1.1208   -0.4123 C   0  0  0  0  0  0  0  0  0  0  0  0
   -3.9759    0.3028   -1.0572 H   0  0  0  0  0  0  0  0  0  0  0  0
   -4.0562   -0.9463    0.1836 H   0  0  0  0  0  0  0  0  0  0  0  0
   -4.0484    0.7670    0.6392 H   0  0  0  0  0  0  0  0  0  0  0  0
   -1.9715    2.1125    0.3655 H   0  0  0  0  0  0  0  0  0  0  0  0
    0.4639    2.1167    0.4101 H   0  0  0  0  0  0  0  0  0  0  0  0
    0.4847   -2.0981   -0.2835 H   0  0  0  0  0  0  0  0  0  0  0  0
   -1.9821   -2.0960   -0.3369 H   0  0  0  0  0  0  0  0  0  0  0  0
    2.3141    2.0133   -0.5141 H   0  0  0  0  0  0  0  0  0  0  0  0
    3.3562    0.8784   -1.3796 H   0  0  0  0  0  0  0  0  0  0  0  0
    3.7398    1.2886    0.2800 H   0  0  0  0  0  0  0  0  0  0  0  0
  1  2  1  0  0  0  0
  2  3  4  0  0  0  0
  3  4  4  0  0  0  0
  4  5  4  0  0  0  0
  5  6  4  0  0  0  0
  2  7  4  0  0  0  0
  6  7  4  0  0  0  0
  5  8  1  0  0  0  0
  8  9  2  0  0  0  0
  8 10  1  0  0  0  0
  1 11  1  0  0  0  0
  1 12  1  0  0  0  0
  1 13  1  0  0  0  0
  3 14  1  0  0  0  0
  4 15  1  0  0  0  0
  6 16  1  0  0  0  0
  7 17  1  0  0  0  0
 10 18  1  0  0  0  0
 10 19  1  0  0  0  0
 10 20  1  0  0  0  0
M  END
