 xtb: 6.7.1 (edcfbbe)
          04042520033D

 15 16  0     0  0            999 V2000
   -1.0896   -1.8649   -0.0002 C   0  0  0  0  0  0  0  0  0  0  0  0
    0.2423   -1.4904   -0.0001 C   0  0  0  0  0  0  0  0  0  0  0  0
    0.5513   -0.1333    0.0000 C   0  0  0  0  0  0  0  0  0  0  0  0
   -0.4405    0.8445    0.0001 C   0  0  0  0  0  0  0  0  0  0  0  0
   -1.7737    0.4555    0.0000 C   0  0  0  0  0  0  0  0  0  0  0  0
   -2.0880   -0.9086   -0.0001 C   0  0  0  0  0  0  0  0  0  0  0  0
   -2.7892    1.3356    0.0002 O   0  0  0  0  0  0  0  0  0  0  0  0
    1.9133    0.2745    0.0000 N   0  0  0  0  0  0  0  0  0  0  0  0
    2.7822   -0.5845    0.0004 O   0  0  0  0  0  0  0  0  0  0  0  0
    2.1659    1.4708   -0.0004 O   0  0  0  0  0  0  0  0  0  0  0  0
   -1.3514   -2.9100   -0.0003 H   0  0  0  0  0  0  0  0  0  0  0  0
    1.0393   -2.2158   -0.0001 H   0  0  0  0  0  0  0  0  0  0  0  0
   -0.1495    1.8840    0.0002 H   0  0  0  0  0  0  0  0  0  0  0  0
   -3.1288   -1.1892   -0.0002 H   0  0  0  0  0  0  0  0  0  0  0  0
   -2.4723    2.2527    0.0005 H   0  0  0  0  0  0  0  0  0  0  0  0
  1  2  4  0  0  0  0
  2  3  4  0  0  0  0
  3  4  4  0  0  0  0
  4  5  4  0  0  0  0
  1  6  4  0  0  0  0
  5  6  4  0  0  0  0
  5  7  1  0  0  0  0
  3  8  1  0  0  0  0
  8  9  4  0  0  0  0
  8 10  4  0  0  0  0
  9 10  1  0  0  0  0
  1 11  1  0  0  0  0
  2 12  1  0  0  0  0
  4 13  1  0  0  0  0
  6 14  1  0  0  0  0
  7 15  1  0  0  0  0
M  END
