12
 xtb: 6.7.1 (edcfbbe)
C           -0.69625778729163       -1.21382655267520       -0.00001315759369
C            0.69627545658222       -1.21383708468324       -0.00000675420370
C            1.37141605003659       -0.00001879765620        0.00001956350287
C            0.69629786687350        1.21381188654764        0.00002161996246
C           -0.69623564408441        1.21382653497222       -0.00001338399021
C           -1.37137787306878        0.00000609881779       -0.00001561975216
Br          -3.28712027683207        0.00002427316500       -0.00008693289013
Br           3.28715552563854       -0.00003872283222        0.00007820666728
H           -1.23296307056027       -2.15528773275784       -0.00003604383715
H            1.23295556231790       -2.15531014822364        0.00001154894640
H            1.23299583557859        2.15527481291029        0.00003244654135
H           -1.23292215394843        2.15529702187814       -0.00001200018829
