12
CONF1
C 2.2922080935 0.1483101977 0.0000578069
C 0.8110951780 0.2705617091 -0.0001121345
C 0.0474690390 1.3939587571 0.0000064049
C -1.3436652299 1.1291849877 -0.0000547786
C -1.6218254890 -0.1961262990 0.0001170702
S -0.1886588618 -1.1524293062 -0.0000328052
H 2.7443253811 1.1364382643 -0.0038841472
H 2.6304241711 -0.3932497709 0.8823153529
H 2.6301480049 -0.4003608441 -0.8778721642
H 0.4604264802 2.3868011356 0.0000845574
H -2.0965815092 1.8965794794 -0.0000640299
H -2.5749302100 -0.6852535161 0.0002928155
