 xtb: 6.7.1 (edcfbbe)
          04062518003D

 24 24  0     0  0            999 V2000
   -2.3552   -1.0026    0.4063 C   0  0  0  0  0  0  0  0  0  0  0  0
   -1.0682   -0.2600    0.8226 C   0  0  0  0  0  0  0  0  0  0  0  0
   -1.2580    0.1914    1.8050 H   0  0  0  0  0  0  0  0  0  0  0  0
   -0.6725    0.8535   -0.1624 C   0  0  0  0  0  0  0  0  0  0  0  0
   -0.6949    0.4731   -1.1904 H   0  0  0  0  0  0  0  0  0  0  0  0
    0.7653    1.2928    0.1656 C   0  0  0  0  0  0  0  0  0  0  0  0
    0.8447    1.5333    1.2328 H   0  0  0  0  0  0  0  0  0  0  0  0
    1.7327    0.1262   -0.1115 C   0  0  0  0  0  0  0  0  0  0  0  0
    2.0631    0.1763   -1.1587 H   0  0  0  0  0  0  0  0  0  0  0  0
    0.9953   -1.2264    0.0568 C   0  0  0  0  0  0  0  0  0  0  0  0
    1.7008   -1.9785    0.4488 H   0  0  0  0  0  0  0  0  0  0  0  0
   -0.0020   -1.1881    1.0340 O   0  0  0  0  0  0  0  0  0  0  0  0
    0.5230   -1.6073   -1.2007 O   0  0  0  0  0  0  0  0  0  0  0  0
    2.8179    0.2549    0.7691 O   0  0  0  0  0  0  0  0  0  0  0  0
    1.1244    2.4714   -0.5012 O   0  0  0  0  0  0  0  0  0  0  0  0
   -1.5883    1.9148   -0.1318 O   0  0  0  0  0  0  0  0  0  0  0  0
   -2.2598   -1.6593   -0.8362 O   0  0  0  0  0  0  0  0  0  0  0  0
   -3.1804   -0.2853    0.4147 H   0  0  0  0  0  0  0  0  0  0  0  0
   -2.5440   -1.7837    1.1461 H   0  0  0  0  0  0  0  0  0  0  0  0
   -0.2599   -2.1815   -1.0956 H   0  0  0  0  0  0  0  0  0  0  0  0
    3.5399   -0.3320    0.5028 H   0  0  0  0  0  0  0  0  0  0  0  0
    1.0311    2.3534   -1.4581 H   0  0  0  0  0  0  0  0  0  0  0  0
   -1.4142    2.4823    0.6325 H   0  0  0  0  0  0  0  0  0  0  0  0
   -2.4149   -1.0263   -1.5503 H   0  0  0  0  0  0  0  0  0  0  0  0
  1  2  1  0  0  0  0
  2  3  1  0  0  0  0
  2  4  1  0  0  0  0
  4  5  1  0  0  0  0
  4  6  1  0  0  0  0
  6  7  1  0  0  0  0
  6  8  1  0  0  0  0
  8  9  1  0  0  0  0
  8 10  1  0  0  0  0
 10 11  1  0  0  0  0
  2 12  1  0  0  0  0
 10 12  1  0  0  0  0
 10 13  1  0  0  0  0
  8 14  1  0  0  0  0
  6 15  1  0  0  0  0
  4 16  1  0  0  0  0
  1 17  1  0  0  0  0
  1 18  1  0  0  0  0
  1 19  1  0  0  0  0
 13 20  1  0  0  0  0
 14 21  1  0  0  0  0
 15 22  1  0  0  0  0
 16 23  1  0  0  0  0
 17 24  1  0  0  0  0
M  END
