17
 xtb: 6.7.1 (edcfbbe)
C           -2.80905292197068        1.06021447689282       -0.00061201397417
O           -2.22689835936463       -0.25288763581622        0.00026811252384
C           -0.85862054331613       -0.33626084010821        0.00012844913213
C           -0.33005048560207       -1.63340810063673        0.00004741671561
C            1.04688456758031       -1.80083179889218       -0.00012806717780
C            1.91112620638280       -0.70636094404682       -0.00021188623955
C            1.36192315253668        0.57278258353057       -0.00007649833093
C           -0.01950266655627        0.77637148498757        0.00009310435504
O            2.14735072188938        1.70450352437123       -0.00011004913515
H           -2.51889682856860        1.61762338661608       -0.89821166758482
H           -2.51953147910083        1.61860610677070        0.89658757176462
H           -3.88813813014021        0.90334014790666       -0.00089873338543
H           -1.00306494381423       -2.48367522828195        0.00007962883393
H            1.46114211944478       -2.80421564797464       -0.00024130968504
H            2.98824821096366       -0.84028294694103       -0.00038547489261
H           -0.40022516486958        1.78963088812481        0.00021438318866
H            3.07708238798965        1.43748878580269       -0.00019367578221
