18
 xtb: 6.7.1 (edcfbbe)
C            2.11697664773258       -0.00389325426923       -0.01402328676185
C            0.83030546114234       -0.68853597385161        0.43708641682194
C           -0.46953285963288        0.03210336410875        0.04525810555920
C           -0.49788491170406        1.47826537804501        0.51802518768015
C           -1.66978337175016       -0.73682044359353        0.59265217542766
O           -0.57343972195248        0.09902987003500       -1.40708930820696
H            2.98120428519055       -0.64044220535948        0.20038030139026
H            2.27368288041373        0.94783770607624        0.50287989586346
H            2.10816410023551        0.19227160438919       -1.09107902445752
H            0.83663488418892       -0.80905608050825        1.52750575930324
H            0.78274887658725       -1.70054849617717        0.01214261896789
H            0.29279968459359        2.06504020961938        0.04222345103671
H           -1.46119154626274        1.93752033221362        0.27428269554638
H           -0.35789518035537        1.52444478132221        1.60204567014666
H           -2.60418648174780       -0.26653336361233        0.27058822150538
H           -1.65746061948926       -1.77235414055754        0.23381777727181
H           -1.65071213379731       -0.75500856365267        1.68713240271214
H           -0.57108421790813       -0.81216725552159       -1.73129281306684
