 xtb: 6.7.1 (edcfbbe)
          04062521023D

 27 27  0     0  0            999 V2000
   -3.4268    0.5926   -0.0306 C   0  0  0  0  0  0  0  0  0  0  0  0
   -1.9336    0.4971    0.0288 C   0  0  0  0  0  0  0  0  0  0  0  0
   -1.1243    1.4444   -0.4238 C   0  0  0  0  0  0  0  0  0  0  0  0
    0.3703    1.3723   -0.4036 C   0  0  0  0  0  0  0  0  0  0  0  0
    0.8560   -0.0626   -0.1637 C   0  0  0  0  0  0  0  0  0  0  0  0
    0.5885   -0.6581   -1.0441 H   0  0  0  0  0  0  0  0  0  0  0  0
    0.0750   -0.6305    1.0211 C   0  0  0  0  0  0  0  0  0  0  0  0
   -1.3953   -0.7857    0.6233 C   0  0  0  0  0  0  0  0  0  0  0  0
   -1.9900   -1.0318    1.5198 H   0  0  0  0  0  0  0  0  0  0  0  0
   -1.5825   -1.8128   -0.3438 O   0  0  0  0  0  0  0  0  0  0  0  0
    2.3553   -0.0941    0.0041 C   0  0  0  0  0  0  0  0  0  0  0  0
    2.9596    0.0561    1.1724 C   0  0  0  0  0  0  0  0  0  0  0  0
    3.1263   -0.2806   -1.2678 C   0  0  0  0  0  0  0  0  0  0  0  0
   -3.8447    0.6037    0.9757 H   0  0  0  0  0  0  0  0  0  0  0  0
   -3.8240   -0.2788   -0.5490 H   0  0  0  0  0  0  0  0  0  0  0  0
   -3.7392    1.4923   -0.5528 H   0  0  0  0  0  0  0  0  0  0  0  0
   -1.5441    2.3533   -0.8342 H   0  0  0  0  0  0  0  0  0  0  0  0
    0.7626    1.7527   -1.3494 H   0  0  0  0  0  0  0  0  0  0  0  0
    0.7530    2.0227    0.3904 H   0  0  0  0  0  0  0  0  0  0  0  0
    0.4867   -1.5968    1.3196 H   0  0  0  0  0  0  0  0  0  0  0  0
    0.1294    0.0470    1.8735 H   0  0  0  0  0  0  0  0  0  0  0  0
   -1.2809   -2.6523    0.0279 H   0  0  0  0  0  0  0  0  0  0  0  0
    4.0336    0.0482    1.2553 H   0  0  0  0  0  0  0  0  0  0  0  0
    2.4186    0.1917    2.0922 H   0  0  0  0  0  0  0  0  0  0  0  0
    2.8336    0.4706   -1.9995 H   0  0  0  0  0  0  0  0  0  0  0  0
    4.1959   -0.2039   -1.0932 H   0  0  0  0  0  0  0  0  0  0  0  0
    2.9099   -1.2591   -1.6950 H   0  0  0  0  0  0  0  0  0  0  0  0
  1  2  1  0  0  0  0
  2  3  2  0  0  0  0
  3  4  1  0  0  0  0
  4  5  1  0  0  0  0
  5  6  1  0  0  0  0
  5  7  1  0  0  0  0
  2  8  1  0  0  0  0
  7  8  1  0  0  0  0
  8  9  1  0  0  0  0
  8 10  1  0  0  0  0
  5 11  1  0  0  0  0
 11 12  2  0  0  0  0
 11 13  1  0  0  0  0
  1 14  1  0  0  0  0
  1 15  1  0  0  0  0
  1 16  1  0  0  0  0
  3 17  1  0  0  0  0
  4 18  1  0  0  0  0
  4 19  1  0  0  0  0
  7 20  1  0  0  0  0
  7 21  1  0  0  0  0
 10 22  1  0  0  0  0
 12 23  1  0  0  0  0
 12 24  1  0  0  0  0
 13 25  1  0  0  0  0
 13 26  1  0  0  0  0
 13 27  1  0  0  0  0
M  END
