 xtb: 6.7.1 (edcfbbe)
          04032521453D

 17 17  0     0  0            999 V2000
    1.8279   -1.4809   -0.0014 C   0  0  0  0  0  0  0  0  0  0  0  0
    0.5423   -0.7108    0.0007 C   0  0  0  0  0  0  0  0  0  0  0  0
   -0.6647   -1.4007    0.0011 C   0  0  0  0  0  0  0  0  0  0  0  0
   -1.8620   -0.7058    0.0003 C   0  0  0  0  0  0  0  0  0  0  0  0
   -1.8034    0.6772   -0.0008 C   0  0  0  0  0  0  0  0  0  0  0  0
   -0.6660    1.3515   -0.0005 N   0  0  0  0  0  0  0  0  0  0  0  0
    0.4867    0.6888    0.0003 C   0  0  0  0  0  0  0  0  0  0  0  0
    1.7185    1.5421    0.0008 C   0  0  0  0  0  0  0  0  0  0  0  0
    2.6925   -0.8281    0.0289 H   0  0  0  0  0  0  0  0  0  0  0  0
    1.8608   -2.1461    0.8600 H   0  0  0  0  0  0  0  0  0  0  0  0
    1.8862   -2.0963   -0.8980 H   0  0  0  0  0  0  0  0  0  0  0  0
   -0.6605   -2.4818    0.0022 H   0  0  0  0  0  0  0  0  0  0  0  0
   -2.8096   -1.2204    0.0003 H   0  0  0  0  0  0  0  0  0  0  0  0
   -2.7013    1.2813   -0.0025 H   0  0  0  0  0  0  0  0  0  0  0  0
    1.4212    2.5860    0.0043 H   0  0  0  0  0  0  0  0  0  0  0  0
    2.3223    1.3420    0.8835 H   0  0  0  0  0  0  0  0  0  0  0  0
    2.3199    1.3465   -0.8844 H   0  0  0  0  0  0  0  0  0  0  0  0
  1  2  1  0  0  0  0
  2  3  4  0  0  0  0
  3  4  4  0  0  0  0
  4  5  4  0  0  0  0
  5  6  4  0  0  0  0
  2  7  4  0  0  0  0
  6  7  4  0  0  0  0
  7  8  1  0  0  0  0
  1  9  1  0  0  0  0
  1 10  1  0  0  0  0
  1 11  1  0  0  0  0
  3 12  1  0  0  0  0
  4 13  1  0  0  0  0
  5 14  1  0  0  0  0
  8 15  1  0  0  0  0
  8 16  1  0  0  0  0
  8 17  1  0  0  0  0
M  END
