 xtb: 6.7.1 (edcfbbe)
          04052508543D

 21 21  0     0  0            999 V2000
   -2.3379    0.1403   -1.2618 C   0  0  0  0  0  0  0  0  0  0  0  0
   -1.6954   -0.4329    0.0036 C   0  0  0  0  0  0  0  0  0  0  0  0
   -2.3403    0.1627    1.2573 C   0  0  0  0  0  0  0  0  0  0  0  0
   -0.2045   -0.1972    0.0022 C   0  0  0  0  0  0  0  0  0  0  0  0
    0.6777   -1.2702    0.0066 C   0  0  0  0  0  0  0  0  0  0  0  0
    2.0470   -1.0671    0.0047 C   0  0  0  0  0  0  0  0  0  0  0  0
    2.5572    0.2192   -0.0015 C   0  0  0  0  0  0  0  0  0  0  0  0
    1.6884    1.2975   -0.0060 C   0  0  0  0  0  0  0  0  0  0  0  0
    0.3211    1.0899   -0.0043 C   0  0  0  0  0  0  0  0  0  0  0  0
   -1.8739   -0.2868   -2.1481 H   0  0  0  0  0  0  0  0  0  0  0  0
   -2.2199    1.2201   -1.2994 H   0  0  0  0  0  0  0  0  0  0  0  0
   -3.4003   -0.0906   -1.2801 H   0  0  0  0  0  0  0  0  0  0  0  0
   -1.8678   -1.5150    0.0132 H   0  0  0  0  0  0  0  0  0  0  0  0
   -1.8768   -0.2470    2.1521 H   0  0  0  0  0  0  0  0  0  0  0  0
   -3.4024   -0.0697    1.2786 H   0  0  0  0  0  0  0  0  0  0  0  0
   -2.2246    1.2433    1.2750 H   0  0  0  0  0  0  0  0  0  0  0  0
    0.2883   -2.2787    0.0114 H   0  0  0  0  0  0  0  0  0  0  0  0
    2.7161   -1.9150    0.0081 H   0  0  0  0  0  0  0  0  0  0  0  0
    3.6248    0.3811   -0.0028 H   0  0  0  0  0  0  0  0  0  0  0  0
    2.0786    2.3048   -0.0108 H   0  0  0  0  0  0  0  0  0  0  0  0
   -0.3418    1.9424   -0.0080 H   0  0  0  0  0  0  0  0  0  0  0  0
  1  2  1  0  0  0  0
  2  3  1  0  0  0  0
  2  4  1  0  0  0  0
  4  5  4  0  0  0  0
  5  6  4  0  0  0  0
  6  7  4  0  0  0  0
  7  8  4  0  0  0  0
  4  9  4  0  0  0  0
  8  9  4  0  0  0  0
  1 10  1  0  0  0  0
  1 11  1  0  0  0  0
  1 12  1  0  0  0  0
  2 13  1  0  0  0  0
  3 14  1  0  0  0  0
  3 15  1  0  0  0  0
  3 16  1  0  0  0  0
  5 17  1  0  0  0  0
  6 18  1  0  0  0  0
  7 19  1  0  0  0  0
  8 20  1  0  0  0  0
  9 21  1  0  0  0  0
M  END
