 xtb: 6.7.1 (edcfbbe)
          04032521543D

 21 22  0     0  0            999 V2000
   -1.8566   -2.1738   -0.0000 C   0  0  0  0  0  0  0  0  0  0  0  0
   -1.3905   -0.7491   -0.0000 C   0  0  0  0  0  0  0  0  0  0  0  0
   -2.3020    0.2758   -0.0000 C   0  0  0  0  0  0  0  0  0  0  0  0
   -1.8994    1.6190    0.0000 C   0  0  0  0  0  0  0  0  0  0  0  0
   -0.5722    1.9381    0.0000 C   0  0  0  0  0  0  0  0  0  0  0  0
    0.4051    0.9209   -0.0000 C   0  0  0  0  0  0  0  0  0  0  0  0
   -0.0023   -0.4407    0.0000 C   0  0  0  0  0  0  0  0  0  0  0  0
    0.9993   -1.4360    0.0000 C   0  0  0  0  0  0  0  0  0  0  0  0
    2.3259   -1.1048    0.0000 C   0  0  0  0  0  0  0  0  0  0  0  0
    2.7240    0.2400    0.0000 C   0  0  0  0  0  0  0  0  0  0  0  0
    1.7818    1.2292   -0.0000 C   0  0  0  0  0  0  0  0  0  0  0  0
   -2.9426   -2.2150   -0.0003 H   0  0  0  0  0  0  0  0  0  0  0  0
   -1.4908   -2.6970   -0.8821 H   0  0  0  0  0  0  0  0  0  0  0  0
   -1.4912   -2.6969    0.8823 H   0  0  0  0  0  0  0  0  0  0  0  0
   -3.3589    0.0499   -0.0000 H   0  0  0  0  0  0  0  0  0  0  0  0
   -2.6502    2.3954    0.0000 H   0  0  0  0  0  0  0  0  0  0  0  0
   -0.2496    2.9693    0.0000 H   0  0  0  0  0  0  0  0  0  0  0  0
    0.7120   -2.4755    0.0001 H   0  0  0  0  0  0  0  0  0  0  0  0
    3.0783   -1.8798    0.0001 H   0  0  0  0  0  0  0  0  0  0  0  0
    3.7758    0.4848   -0.0000 H   0  0  0  0  0  0  0  0  0  0  0  0
    2.0762    2.2691   -0.0000 H   0  0  0  0  0  0  0  0  0  0  0  0
  1  2  1  0  0  0  0
  2  3  2  0  0  0  0
  3  4  4  0  0  0  0
  4  5  2  0  0  0  0
  5  6  4  0  0  0  0
  2  7  4  0  0  0  0
  6  7  4  0  0  0  0
  7  8  4  0  0  0  0
  8  9  2  0  0  0  0
  9 10  4  0  0  0  0
  6 11  4  0  0  0  0
 10 11  2  0  0  0  0
  1 12  1  0  0  0  0
  1 13  1  0  0  0  0
  1 14  1  0  0  0  0
  3 15  1  0  0  0  0
  4 16  1  0  0  0  0
  5 17  1  0  0  0  0
  8 18  1  0  0  0  0
  9 19  1  0  0  0  0
 10 20  1  0  0  0  0
 11 21  1  0  0  0  0
M  END
