19
 xtb: 6.7.1 (edcfbbe)
C           -1.79192469180791       -0.00013718725936        0.17011525289563
C           -0.94081793238952       -1.25958828865088        0.34738270870852
C            0.24317909738462       -1.26172310540250       -0.62396530578259
C            1.09773428880834        0.00004544903197       -0.49723725632648
C            0.24305168495392        1.26174733664645       -0.62378265249850
C           -0.94090528138350        1.25934135162348        0.34760630376053
O            1.85525008948576        0.00000885101524        0.74066647337433
H           -2.62573886179419       -0.00023360907371        0.88130611863015
H           -2.22775868426947       -0.00006247788954       -0.83898234339033
H           -0.57778053680325       -1.30853038330143        1.38397033873431
H           -1.54681410758940       -2.15884048120334        0.19033151590792
H            0.87489064270468       -2.14420779450474       -0.47128698742834
H           -0.13713453376522       -1.30744104206932       -1.65306964014172
H            1.86590878213164        0.00013720823684       -1.27803750733144
H            0.87468266831317        2.14426900327585       -0.47098704986536
H           -0.13728946396484        1.30758068055032       -1.65287308045370
H           -0.57779526971081        1.30807627024136        1.38417615209876
H           -1.54697811482207        2.15857986690873        0.19077183616967
H            1.22551708151383       -0.00063003841076        1.47322302163621
