 xtb: 6.7.1 (edcfbbe)
          04052518533D

 23 23  0     0  0            999 V2000
   -2.6418   -0.0537    1.1457 C   0  0  0  0  0  0  0  0  0  0  0  0
   -1.7426   -0.0006   -0.0545 C   0  0  0  0  0  0  0  0  0  0  0  0
   -2.1560   -0.1637   -1.1863 O   0  0  0  0  0  0  0  0  0  0  0  0
   -0.2805    0.2420    0.2493 C   0  0  0  0  0  0  0  0  0  0  0  0
    0.4569    0.8523   -0.9413 C   0  0  0  0  0  0  0  0  0  0  0  0
    1.8951    1.2129   -0.5545 C   0  0  0  0  0  0  0  0  0  0  0  0
    2.4658    0.2236    0.4699 C   0  0  0  0  0  0  0  0  0  0  0  0
    1.8456   -1.1548    0.2719 C   0  0  0  0  0  0  0  0  0  0  0  0
    0.3518   -1.1226    0.6134 C   0  0  0  0  0  0  0  0  0  0  0  0
   -3.6278   -0.4137    0.8652 H   0  0  0  0  0  0  0  0  0  0  0  0
   -2.2090   -0.6927    1.9100 H   0  0  0  0  0  0  0  0  0  0  0  0
   -2.7312    0.9499    1.5565 H   0  0  0  0  0  0  0  0  0  0  0  0
   -0.2036    0.9172    1.1046 H   0  0  0  0  0  0  0  0  0  0  0  0
    0.4432    0.1338   -1.7623 H   0  0  0  0  0  0  0  0  0  0  0  0
   -0.0750    1.7407   -1.2876 H   0  0  0  0  0  0  0  0  0  0  0  0
    2.5116    1.2135   -1.4545 H   0  0  0  0  0  0  0  0  0  0  0  0
    1.9230    2.2211   -0.1383 H   0  0  0  0  0  0  0  0  0  0  0  0
    3.5498    0.1669    0.3653 H   0  0  0  0  0  0  0  0  0  0  0  0
    2.2511    0.5649    1.4840 H   0  0  0  0  0  0  0  0  0  0  0  0
    1.9890   -1.4623   -0.7648 H   0  0  0  0  0  0  0  0  0  0  0  0
    2.3431   -1.8897    0.9058 H   0  0  0  0  0  0  0  0  0  0  0  0
   -0.1610   -1.9184    0.0679 H   0  0  0  0  0  0  0  0  0  0  0  0
    0.2126   -1.3052    1.6795 H   0  0  0  0  0  0  0  0  0  0  0  0
  1  2  1  0  0  0  0
  2  3  2  0  0  0  0
  2  4  1  0  0  0  0
  4  5  1  0  0  0  0
  5  6  1  0  0  0  0
  6  7  1  0  0  0  0
  7  8  1  0  0  0  0
  4  9  1  0  0  0  0
  8  9  1  0  0  0  0
  1 10  1  0  0  0  0
  1 11  1  0  0  0  0
  1 12  1  0  0  0  0
  4 13  1  0  0  0  0
  5 14  1  0  0  0  0
  5 15  1  0  0  0  0
  6 16  1  0  0  0  0
  6 17  1  0  0  0  0
  7 18  1  0  0  0  0
  7 19  1  0  0  0  0
  8 20  1  0  0  0  0
  8 21  1  0  0  0  0
  9 22  1  0  0  0  0
  9 23  1  0  0  0  0
M  END
