 xtb: 6.7.1 (edcfbbe)
          04042519523D

 16 16  0     0  0            999 V2000
   -2.5106   -0.2131    1.0117 C   0  0  0  0  0  0  0  0  0  0  0  0
   -1.8515    0.2507   -0.6250 S   0  0  0  0  0  0  0  0  0  0  0  0
   -0.1049    0.0819   -0.2522 C   0  0  0  0  0  0  0  0  0  0  0  0
    0.6022    1.1758    0.2180 C   0  0  0  0  0  0  0  0  0  0  0  0
    1.9461    1.0379    0.5199 C   0  0  0  0  0  0  0  0  0  0  0  0
    2.5747   -0.1845    0.3474 C   0  0  0  0  0  0  0  0  0  0  0  0
    1.8621   -1.2719   -0.1309 C   0  0  0  0  0  0  0  0  0  0  0  0
    0.5180   -1.1414   -0.4351 C   0  0  0  0  0  0  0  0  0  0  0  0
   -2.1459    0.4888    1.7547 H   0  0  0  0  0  0  0  0  0  0  0  0
   -2.1989   -1.2255    1.2480 H   0  0  0  0  0  0  0  0  0  0  0  0
   -3.5904   -0.1560    0.9314 H   0  0  0  0  0  0  0  0  0  0  0  0
    0.0993    2.1228    0.3423 H   0  0  0  0  0  0  0  0  0  0  0  0
    2.5010    1.8869    0.8885 H   0  0  0  0  0  0  0  0  0  0  0  0
    3.6226   -0.2891    0.5832 H   0  0  0  0  0  0  0  0  0  0  0  0
    2.3516   -2.2236   -0.2701 H   0  0  0  0  0  0  0  0  0  0  0  0
   -0.0495   -1.9779   -0.8138 H   0  0  0  0  0  0  0  0  0  0  0  0
  1  2  1  0  0  0  0
  2  3  1  0  0  0  0
  3  4  4  0  0  0  0
  4  5  4  0  0  0  0
  5  6  4  0  0  0  0
  6  7  4  0  0  0  0
  3  8  4  0  0  0  0
  7  8  4  0  0  0  0
  1  9  1  0  0  0  0
  1 10  1  0  0  0  0
  1 11  1  0  0  0  0
  4 12  1  0  0  0  0
  5 13  1  0  0  0  0
  6 14  1  0  0  0  0
  7 15  1  0  0  0  0
  8 16  1  0  0  0  0
M  END
