 xtb: 6.7.1 (edcfbbe)
          04062518003D

 24 24  0     0  0            999 V2000
   -2.5621   -0.8787    0.2578 C   0  0  0  0  0  0  0  0  0  0  0  0
   -1.1389   -0.4312    0.6182 C   0  0  0  0  0  0  0  0  0  0  0  0
   -1.0482   -0.3588    1.7128 H   0  0  0  0  0  0  0  0  0  0  0  0
   -0.8285    0.9476    0.0213 C   0  0  0  0  0  0  0  0  0  0  0  0
   -1.0503    0.9290   -1.0557 H   0  0  0  0  0  0  0  0  0  0  0  0
    0.6568    1.2822    0.2102 C   0  0  0  0  0  0  0  0  0  0  0  0
    0.8415    1.4252    1.2899 H   0  0  0  0  0  0  0  0  0  0  0  0
    1.5435    0.1362   -0.2989 C   0  0  0  0  0  0  0  0  0  0  0  0
    1.4175    0.0278   -1.3813 H   0  0  0  0  0  0  0  0  0  0  0  0
    1.1031   -1.1754    0.3691 C   0  0  0  0  0  0  0  0  0  0  0  0
    1.2555   -1.0859    1.4692 H   0  0  0  0  0  0  0  0  0  0  0  0
   -0.2606   -1.4247    0.1221 O   0  0  0  0  0  0  0  0  0  0  0  0
    1.8348   -2.2198   -0.1524 O   0  0  0  0  0  0  0  0  0  0  0  0
    2.9004    0.4308   -0.1001 O   0  0  0  0  0  0  0  0  0  0  0  0
    0.9277    2.4803   -0.4762 O   0  0  0  0  0  0  0  0  0  0  0  0
   -1.6434    1.8826    0.6805 O   0  0  0  0  0  0  0  0  0  0  0  0
   -2.7308   -1.0516   -1.1236 O   0  0  0  0  0  0  0  0  0  0  0  0
   -3.2590   -0.0986    0.5665 H   0  0  0  0  0  0  0  0  0  0  0  0
   -2.7858   -1.8082    0.7948 H   0  0  0  0  0  0  0  0  0  0  0  0
    1.4262   -3.0642    0.0965 H   0  0  0  0  0  0  0  0  0  0  0  0
    3.1444    0.2943    0.8271 H   0  0  0  0  0  0  0  0  0  0  0  0
    1.8874    2.5611   -0.5899 H   0  0  0  0  0  0  0  0  0  0  0  0
   -1.4466    2.7620    0.3239 H   0  0  0  0  0  0  0  0  0  0  0  0
   -2.0922   -1.7143   -1.4261 H   0  0  0  0  0  0  0  0  0  0  0  0
  1  2  1  0  0  0  0
  2  3  1  0  0  0  0
  2  4  1  0  0  0  0
  4  5  1  0  0  0  0
  4  6  1  0  0  0  0
  6  7  1  0  0  0  0
  6  8  1  0  0  0  0
  8  9  1  0  0  0  0
  8 10  1  0  0  0  0
 10 11  1  0  0  0  0
  2 12  1  0  0  0  0
 10 12  1  0  0  0  0
 10 13  1  0  0  0  0
  8 14  1  0  0  0  0
  6 15  1  0  0  0  0
  4 16  1  0  0  0  0
  1 17  1  0  0  0  0
  1 18  1  0  0  0  0
  1 19  1  0  0  0  0
 13 20  1  0  0  0  0
 14 21  1  0  0  0  0
 15 22  1  0  0  0  0
 16 23  1  0  0  0  0
 17 24  1  0  0  0  0
M  END
