 xtb: 6.7.1 (edcfbbe)
          04052516073D

 27 27  0     0  0            999 V2000
   -2.4812    0.0318   -1.4636 C   0  0  0  0  0  0  0  0  0  0  0  0
   -2.0408    0.4635   -0.0559 C   0  0  0  0  0  0  0  0  0  0  0  0
   -2.9458    0.6836    0.5195 H   0  0  0  0  0  0  0  0  0  0  0  0
   -1.1206    1.7003   -0.0932 C   0  0  0  0  0  0  0  0  0  0  0  0
    0.3064    1.3859    0.3475 C   0  0  0  0  0  0  0  0  0  0  0  0
    0.7896    0.1242   -0.3755 C   0  0  0  0  0  0  0  0  0  0  0  0
    0.5384    0.2341   -1.4345 H   0  0  0  0  0  0  0  0  0  0  0  0
    0.0210   -1.0664    0.2062 C   0  0  0  0  0  0  0  0  0  0  0  0
   -1.3982   -0.7431    0.5864 C   0  0  0  0  0  0  0  0  0  0  0  0
   -2.0241   -1.4584    1.3489 O   0  0  0  0  0  0  0  0  0  0  0  0
    2.2869   -0.0555   -0.2872 C   0  0  0  0  0  0  0  0  0  0  0  0
    3.0353   -0.0254   -1.3797 C   0  0  0  0  0  0  0  0  0  0  0  0
    2.8930   -0.2464    1.0706 C   0  0  0  0  0  0  0  0  0  0  0  0
   -3.1235   -0.8446   -1.4035 H   0  0  0  0  0  0  0  0  0  0  0  0
   -3.0397    0.8376   -1.9322 H   0  0  0  0  0  0  0  0  0  0  0  0
   -1.6225   -0.2084   -2.0837 H   0  0  0  0  0  0  0  0  0  0  0  0
   -1.0984    2.0951   -1.1098 H   0  0  0  0  0  0  0  0  0  0  0  0
   -1.5316    2.4770    0.5525 H   0  0  0  0  0  0  0  0  0  0  0  0
    0.9563    2.2300    0.1134 H   0  0  0  0  0  0  0  0  0  0  0  0
    0.3309    1.2219    1.4268 H   0  0  0  0  0  0  0  0  0  0  0  0
   -0.0121   -1.8948   -0.5062 H   0  0  0  0  0  0  0  0  0  0  0  0
    0.5078   -1.4500    1.1047 H   0  0  0  0  0  0  0  0  0  0  0  0
    4.1061   -0.1317   -1.3384 H   0  0  0  0  0  0  0  0  0  0  0  0
    2.6121    0.1055   -2.3613 H   0  0  0  0  0  0  0  0  0  0  0  0
    3.9715   -0.1242    1.0239 H   0  0  0  0  0  0  0  0  0  0  0  0
    2.4891    0.4704    1.7812 H   0  0  0  0  0  0  0  0  0  0  0  0
    2.6855   -1.2476    1.4464 H   0  0  0  0  0  0  0  0  0  0  0  0
  1  2  1  0  0  0  0
  2  3  1  0  0  0  0
  2  4  1  0  0  0  0
  4  5  1  0  0  0  0
  5  6  1  0  0  0  0
  6  7  1  0  0  0  0
  6  8  1  0  0  0  0
  2  9  1  0  0  0  0
  8  9  1  0  0  0  0
  9 10  2  0  0  0  0
  6 11  1  0  0  0  0
 11 12  2  0  0  0  0
 11 13  1  0  0  0  0
  1 14  1  0  0  0  0
  1 15  1  0  0  0  0
  1 16  1  0  0  0  0
  4 17  1  0  0  0  0
  4 18  1  0  0  0  0
  5 19  1  0  0  0  0
  5 20  1  0  0  0  0
  8 21  1  0  0  0  0
  8 22  1  0  0  0  0
 12 23  1  0  0  0  0
 12 24  1  0  0  0  0
 13 25  1  0  0  0  0
 13 26  1  0  0  0  0
 13 27  1  0  0  0  0
M  END
