 xtb: 6.7.1 (edcfbbe)
          04062501273D

 25 25  0     0  0            999 V2000
   -4.1868   -0.3568   -0.1842 C   0  0  0  0  0  0  0  0  0  0  0  0
   -2.7144   -0.1270   -0.0376 C   0  0  0  0  0  0  0  0  0  0  0  0
   -1.9925   -0.7244    0.9877 C   0  0  0  0  0  0  0  0  0  0  0  0
   -0.6283   -0.5261    1.1057 C   0  0  0  0  0  0  0  0  0  0  0  0
    0.0419    0.2760    0.1920 C   0  0  0  0  0  0  0  0  0  0  0  0
   -0.6738    0.8885   -0.8292 C   0  0  0  0  0  0  0  0  0  0  0  0
   -2.0363    0.6846   -0.9409 C   0  0  0  0  0  0  0  0  0  0  0  0
    1.5100    0.5269    0.3422 C   0  0  0  0  0  0  0  0  0  0  0  0
    1.9318    1.4805    1.0050 O   0  0  0  0  0  0  0  0  0  0  0  0
    2.3140   -0.3423   -0.2822 N   0  0  0  0  0  0  0  0  0  0  0  0
    3.7521   -0.2061   -0.2006 C   0  0  0  0  0  0  0  0  0  0  0  0
    1.7957   -1.4537   -1.0558 C   0  0  0  0  0  0  0  0  0  0  0  0
   -4.7000    0.5775   -0.3994 H   0  0  0  0  0  0  0  0  0  0  0  0
   -4.3744   -1.0396   -1.0120 H   0  0  0  0  0  0  0  0  0  0  0  0
   -4.6040   -0.7906    0.7203 H   0  0  0  0  0  0  0  0  0  0  0  0
   -2.5015   -1.3508    1.7053 H   0  0  0  0  0  0  0  0  0  0  0  0
   -0.0796   -0.9881    1.9138 H   0  0  0  0  0  0  0  0  0  0  0  0
   -0.1593    1.5295   -1.5306 H   0  0  0  0  0  0  0  0  0  0  0  0
   -2.5831    1.1646   -1.7390 H   0  0  0  0  0  0  0  0  0  0  0  0
    4.1733   -0.0629   -1.1960 H   0  0  0  0  0  0  0  0  0  0  0  0
    4.1881   -1.0944    0.2574 H   0  0  0  0  0  0  0  0  0  0  0  0
    3.9737    0.6642    0.4146 H   0  0  0  0  0  0  0  0  0  0  0  0
    1.1465   -1.0988   -1.8566 H   0  0  0  0  0  0  0  0  0  0  0  0
    1.2243   -2.1345   -0.4237 H   0  0  0  0  0  0  0  0  0  0  0  0
    2.6342   -1.9906   -1.4895 H   0  0  0  0  0  0  0  0  0  0  0  0
  1  2  1  0  0  0  0
  2  3  4  0  0  0  0
  3  4  4  0  0  0  0
  4  5  4  0  0  0  0
  5  6  4  0  0  0  0
  2  7  4  0  0  0  0
  6  7  4  0  0  0  0
  5  8  1  0  0  0  0
  8  9  2  0  0  0  0
  8 10  4  0  0  0  0
 10 11  1  0  0  0  0
 10 12  1  0  0  0  0
  1 13  1  0  0  0  0
  1 14  1  0  0  0  0
  1 15  1  0  0  0  0
  3 16  1  0  0  0  0
  4 17  1  0  0  0  0
  6 18  1  0  0  0  0
  7 19  1  0  0  0  0
 11 20  1  0  0  0  0
 11 21  1  0  0  0  0
 11 22  1  0  0  0  0
 12 23  1  0  0  0  0
 12 24  1  0  0  0  0
 12 25  1  0  0  0  0
M  END
