 xtb: 6.7.1 (edcfbbe)
          04062518003D

 24 24  0     0  0            999 V2000
   -2.5685   -0.6549   -0.3212 C   0  0  0  0  0  0  0  0  0  0  0  0
   -1.1816   -0.2974    0.2235 C   0  0  0  0  0  0  0  0  0  0  0  0
   -1.2326   -0.2244    1.3208 H   0  0  0  0  0  0  0  0  0  0  0  0
   -0.6980    1.0453   -0.3369 C   0  0  0  0  0  0  0  0  0  0  0  0
   -0.6901    0.9779   -1.4385 H   0  0  0  0  0  0  0  0  0  0  0  0
    0.7340    1.3317    0.1523 C   0  0  0  0  0  0  0  0  0  0  0  0
    0.7235    1.4597    1.2412 H   0  0  0  0  0  0  0  0  0  0  0  0
    1.6434    0.1513   -0.1948 C   0  0  0  0  0  0  0  0  0  0  0  0
    1.7198    0.0539   -1.2901 H   0  0  0  0  0  0  0  0  0  0  0  0
    1.0180   -1.1527    0.3366 C   0  0  0  0  0  0  0  0  0  0  0  0
    0.9960   -1.1037    1.4458 H   0  0  0  0  0  0  0  0  0  0  0  0
   -0.2921   -1.3374   -0.1458 O   0  0  0  0  0  0  0  0  0  0  0  0
    1.8042   -2.1961   -0.1088 O   0  0  0  0  0  0  0  0  0  0  0  0
    2.9065    0.3644    0.3746 O   0  0  0  0  0  0  0  0  0  0  0  0
    1.1891    2.5587   -0.3565 O   0  0  0  0  0  0  0  0  0  0  0  0
   -1.5795    2.0550    0.0762 O   0  0  0  0  0  0  0  0  0  0  0  0
   -3.1395   -1.7557    0.3332 O   0  0  0  0  0  0  0  0  0  0  0  0
   -2.4830   -0.8401   -1.3987 H   0  0  0  0  0  0  0  0  0  0  0  0
   -3.2323    0.1931   -0.1477 H   0  0  0  0  0  0  0  0  0  0  0  0
    1.3869   -3.0463    0.0991 H   0  0  0  0  0  0  0  0  0  0  0  0
    3.4646   -0.4091    0.2008 H   0  0  0  0  0  0  0  0  0  0  0  0
    1.4869    2.4524   -1.2717 H   0  0  0  0  0  0  0  0  0  0  0  0
   -1.1266    2.9093   -0.0187 H   0  0  0  0  0  0  0  0  0  0  0  0
   -2.5771   -2.5296    0.1862 H   0  0  0  0  0  0  0  0  0  0  0  0
  1  2  1  0  0  0  0
  2  3  1  0  0  0  0
  2  4  1  0  0  0  0
  4  5  1  0  0  0  0
  4  6  1  0  0  0  0
  6  7  1  0  0  0  0
  6  8  1  0  0  0  0
  8  9  1  0  0  0  0
  8 10  1  0  0  0  0
 10 11  1  0  0  0  0
  2 12  1  0  0  0  0
 10 12  1  0  0  0  0
 10 13  1  0  0  0  0
  8 14  1  0  0  0  0
  6 15  1  0  0  0  0
  4 16  1  0  0  0  0
  1 17  1  0  0  0  0
  1 18  1  0  0  0  0
  1 19  1  0  0  0  0
 13 20  1  0  0  0  0
 14 21  1  0  0  0  0
 15 22  1  0  0  0  0
 16 23  1  0  0  0  0
 17 24  1  0  0  0  0
M  END
