 xtb: 6.7.1 (edcfbbe)
          04042521073D

 15 14  0     0  0            999 V2000
   -2.4005    0.0413    0.0438 C   0  0  0  0  0  0  0  0  0  0  0  0
   -0.9443    0.4899   -0.0040 C   0  0  0  0  0  0  0  0  0  0  0  0
   -0.0021   -0.6733   -0.1351 C   0  0  0  0  0  0  0  0  0  0  0  0
    1.3193   -0.6131   -0.0714 C   0  0  0  0  0  0  0  0  0  0  0  0
    2.1377    0.6188    0.1404 C   0  0  0  0  0  0  0  0  0  0  0  0
   -3.0609    0.9000    0.1412 H   0  0  0  0  0  0  0  0  0  0  0  0
   -2.5675   -0.6185    0.8925 H   0  0  0  0  0  0  0  0  0  0  0  0
   -2.6650   -0.4937   -0.8658 H   0  0  0  0  0  0  0  0  0  0  0  0
   -0.8033    1.1677   -0.8515 H   0  0  0  0  0  0  0  0  0  0  0  0
   -0.7103    1.0522    0.9039 H   0  0  0  0  0  0  0  0  0  0  0  0
   -0.4748   -1.6323   -0.3010 H   0  0  0  0  0  0  0  0  0  0  0  0
    1.8941   -1.5243   -0.1821 H   0  0  0  0  0  0  0  0  0  0  0  0
    2.8029    0.7707   -0.7090 H   0  0  0  0  0  0  0  0  0  0  0  0
    2.7592    0.5043    1.0278 H   0  0  0  0  0  0  0  0  0  0  0  0
    1.5145    1.4996    0.2574 H   0  0  0  0  0  0  0  0  0  0  0  0
  1  2  1  0  0  0  0
  2  3  1  0  0  0  0
  3  4  2  0  0  0  0
  4  5  1  0  0  0  0
  1  6  1  0  0  0  0
  1  7  1  0  0  0  0
  1  8  1  0  0  0  0
  2  9  1  0  0  0  0
  2 10  1  0  0  0  0
  3 11  1  0  0  0  0
  4 12  1  0  0  0  0
  5 13  1  0  0  0  0
  5 14  1  0  0  0  0
  5 15  1  0  0  0  0
M  END
