 xtb: 6.7.1 (edcfbbe)
          04062518003D

 24 24  0     0  0            999 V2000
   -2.2294   -1.1877    0.1165 C   0  0  0  0  0  0  0  0  0  0  0  0
   -0.8528   -0.5778    0.4320 C   0  0  0  0  0  0  0  0  0  0  0  0
   -0.8084   -0.3284    1.5030 H   0  0  0  0  0  0  0  0  0  0  0  0
   -0.5876    0.6887   -0.4025 C   0  0  0  0  0  0  0  0  0  0  0  0
   -0.6064    0.4111   -1.4633 H   0  0  0  0  0  0  0  0  0  0  0  0
    0.8011    1.2768   -0.0700 C   0  0  0  0  0  0  0  0  0  0  0  0
    0.6804    2.0511    0.6972 H   0  0  0  0  0  0  0  0  0  0  0  0
    1.7487    0.1875    0.4887 C   0  0  0  0  0  0  0  0  0  0  0  0
    2.7713    0.4429    0.1816 H   0  0  0  0  0  0  0  0  0  0  0  0
    1.4027   -1.1580   -0.1591 C   0  0  0  0  0  0  0  0  0  0  0  0
    2.0673   -1.9398    0.2379 H   0  0  0  0  0  0  0  0  0  0  0  0
    0.1062   -1.5932    0.1515 O   0  0  0  0  0  0  0  0  0  0  0  0
    1.5777   -1.0007   -1.5366 O   0  0  0  0  0  0  0  0  0  0  0  0
    1.6536    0.0374    1.8810 O   0  0  0  0  0  0  0  0  0  0  0  0
    1.3767    1.9367   -1.1668 O   0  0  0  0  0  0  0  0  0  0  0  0
   -1.6193    1.6336   -0.2516 O   0  0  0  0  0  0  0  0  0  0  0  0
   -3.2957   -0.4265    0.6142 O   0  0  0  0  0  0  0  0  0  0  0  0
   -2.2860   -2.1656    0.5990 H   0  0  0  0  0  0  0  0  0  0  0  0
   -2.3167   -1.3266   -0.9688 H   0  0  0  0  0  0  0  0  0  0  0  0
    1.4390   -1.8486   -1.9853 H   0  0  0  0  0  0  0  0  0  0  0  0
    2.1260    0.7582    2.3227 H   0  0  0  0  0  0  0  0  0  0  0  0
    1.5520    1.2882   -1.8661 H   0  0  0  0  0  0  0  0  0  0  0  0
   -1.5428    2.0681    0.6108 H   0  0  0  0  0  0  0  0  0  0  0  0
   -3.2594    0.4494    0.1916 H   0  0  0  0  0  0  0  0  0  0  0  0
  1  2  1  0  0  0  0
  2  3  1  0  0  0  0
  2  4  1  0  0  0  0
  4  5  1  0  0  0  0
  4  6  1  0  0  0  0
  6  7  1  0  0  0  0
  6  8  1  0  0  0  0
  8  9  1  0  0  0  0
  8 10  1  0  0  0  0
 10 11  1  0  0  0  0
  2 12  1  0  0  0  0
 10 12  1  0  0  0  0
 10 13  1  0  0  0  0
  8 14  1  0  0  0  0
  6 15  1  0  0  0  0
  4 16  1  0  0  0  0
  1 17  1  0  0  0  0
  1 18  1  0  0  0  0
  1 19  1  0  0  0  0
 13 20  1  0  0  0  0
 14 21  1  0  0  0  0
 15 22  1  0  0  0  0
 16 23  1  0  0  0  0
 17 24  1  0  0  0  0
M  END
