15
CONF1
C 2.0693665974 -1.0295366776 0.0001569370
C 2.3305047982 0.3407996386 -0.0000190514
C 1.3012162478 1.2554502799 0.0000105903
C -0.0283529156 0.8243659922 -0.0000577933
C -0.3002753594 -0.5636968869 -0.0002777514
C 0.7699130976 -1.4728339326 -0.0001721194
C -1.6566874009 -1.0459508415 -0.0001081517
O -2.6621614144 -0.3425249865 0.0001717699
O -0.9970838290 1.7443620632 0.0001190659
H 2.8854140197 -1.7334357117 0.0009733088
H 3.3509446537 0.6905841880 -0.0005231724
H 1.4888419348 2.3172202427 0.0000949056
H 0.5469922138 -2.5289275770 0.0015127467
H -1.7628946907 -2.1433161525 -0.0002633311
H -1.8767166013 1.3009549683 -0.0008421219
