 xtb: 6.7.1 (edcfbbe)
          04032521493D

 17 17  0     0  0            999 V2000
   -2.5560   -0.9715    0.1018 C   0  0  0  0  0  0  0  0  0  0  0  0
   -1.2333   -0.2798    0.0179 C   0  0  0  0  0  0  0  0  0  0  0  0
   -1.1526    1.1091   -0.0682 C   0  0  0  0  0  0  0  0  0  0  0  0
    0.0948    1.7002   -0.1258 C   0  0  0  0  0  0  0  0  0  0  0  0
    1.2336    1.0224   -0.1042 N   0  0  0  0  0  0  0  0  0  0  0  0
    1.1730   -0.3024   -0.0222 C   0  0  0  0  0  0  0  0  0  0  0  0
   -0.0394   -0.9852    0.0404 C   0  0  0  0  0  0  0  0  0  0  0  0
    2.4729   -1.0442   -0.0024 C   0  0  0  0  0  0  0  0  0  0  0  0
   -2.9437   -0.8959    1.1172 H   0  0  0  0  0  0  0  0  0  0  0  0
   -3.2750   -0.5034   -0.5662 H   0  0  0  0  0  0  0  0  0  0  0  0
   -2.4605   -2.0237   -0.1519 H   0  0  0  0  0  0  0  0  0  0  0  0
   -2.0464    1.7128   -0.0908 H   0  0  0  0  0  0  0  0  0  0  0  0
    0.2005    2.7754   -0.1944 H   0  0  0  0  0  0  0  0  0  0  0  0
   -0.0415   -2.0632    0.1050 H   0  0  0  0  0  0  0  0  0  0  0  0
    2.5378   -1.7072   -0.8627 H   0  0  0  0  0  0  0  0  0  0  0  0
    3.2967   -0.3385   -0.0310 H   0  0  0  0  0  0  0  0  0  0  0  0
    2.5461   -1.6495    0.8985 H   0  0  0  0  0  0  0  0  0  0  0  0
  1  2  1  0  0  0  0
  2  3  4  0  0  0  0
  3  4  4  0  0  0  0
  4  5  4  0  0  0  0
  5  6  4  0  0  0  0
  2  7  4  0  0  0  0
  6  7  4  0  0  0  0
  6  8  1  0  0  0  0
  1  9  1  0  0  0  0
  1 10  1  0  0  0  0
  1 11  1  0  0  0  0
  3 12  1  0  0  0  0
  4 13  1  0  0  0  0
  7 14  1  0  0  0  0
  8 15  1  0  0  0  0
  8 16  1  0  0  0  0
  8 17  1  0  0  0  0
M  END
