 xtb: 6.7.1 (edcfbbe)
          04062518003D

 24 24  0     0  0            999 V2000
   -2.2888   -1.0737   -0.1973 C   0  0  0  0  0  0  0  0  0  0  0  0
   -0.9223   -0.5579    0.2834 C   0  0  0  0  0  0  0  0  0  0  0  0
   -0.8209   -0.7108    1.3701 H   0  0  0  0  0  0  0  0  0  0  0  0
   -0.7411    0.9521   -0.0034 C   0  0  0  0  0  0  0  0  0  0  0  0
   -1.4259    1.2511   -0.8040 H   0  0  0  0  0  0  0  0  0  0  0  0
    0.7154    1.2343   -0.4331 C   0  0  0  0  0  0  0  0  0  0  0  0
    0.9312    2.2873   -0.1966 H   0  0  0  0  0  0  0  0  0  0  0  0
    1.6568    0.3441    0.3899 C   0  0  0  0  0  0  0  0  0  0  0  0
    2.6913    0.5527    0.0902 H   0  0  0  0  0  0  0  0  0  0  0  0
    1.3736   -1.1401    0.0353 C   0  0  0  0  0  0  0  0  0  0  0  0
    1.5713   -1.7668    0.9225 H   0  0  0  0  0  0  0  0  0  0  0  0
    0.0436   -1.3401   -0.3947 O   0  0  0  0  0  0  0  0  0  0  0  0
    2.2143   -1.5987   -0.9590 O   0  0  0  0  0  0  0  0  0  0  0  0
    1.4464    0.6251    1.7516 O   0  0  0  0  0  0  0  0  0  0  0  0
    0.9698    0.9589   -1.7856 O   0  0  0  0  0  0  0  0  0  0  0  0
   -1.0969    1.7359    1.1055 O   0  0  0  0  0  0  0  0  0  0  0  0
   -3.3583   -0.2341    0.1416 O   0  0  0  0  0  0  0  0  0  0  0  0
   -2.4376   -2.0902    0.1873 H   0  0  0  0  0  0  0  0  0  0  0  0
   -2.2682   -1.1205   -1.2884 H   0  0  0  0  0  0  0  0  0  0  0  0
    1.9795   -1.1462   -1.7874 H   0  0  0  0  0  0  0  0  0  0  0  0
    2.1861    0.2938    2.2797 H   0  0  0  0  0  0  0  0  0  0  0  0
    0.4287    1.5334   -2.3452 H   0  0  0  0  0  0  0  0  0  0  0  0
   -0.4393    1.5936    1.8063 H   0  0  0  0  0  0  0  0  0  0  0  0
   -3.4109   -0.1398    1.1032 H   0  0  0  0  0  0  0  0  0  0  0  0
  1  2  1  0  0  0  0
  2  3  1  0  0  0  0
  2  4  1  0  0  0  0
  4  5  1  0  0  0  0
  4  6  1  0  0  0  0
  6  7  1  0  0  0  0
  6  8  1  0  0  0  0
  8  9  1  0  0  0  0
  8 10  1  0  0  0  0
 10 11  1  0  0  0  0
  2 12  1  0  0  0  0
 10 12  1  0  0  0  0
 10 13  1  0  0  0  0
  8 14  1  0  0  0  0
  6 15  1  0  0  0  0
  4 16  1  0  0  0  0
  1 17  1  0  0  0  0
  1 18  1  0  0  0  0
  1 19  1  0  0  0  0
 13 20  1  0  0  0  0
 14 21  1  0  0  0  0
 15 22  1  0  0  0  0
 16 23  1  0  0  0  0
 17 24  1  0  0  0  0
M  END
