 xtb: 6.7.1 (edcfbbe)
          04062512123D

 31 31  0     0  0            999 V2000
    3.6872    0.3809    0.0562 C   0  0  0  0  0  0  0  0  0  0  0  0
    2.2137    0.3135   -0.3364 C   0  0  0  0  0  0  0  0  0  0  0  0
    2.1380    0.3765   -1.4283 H   0  0  0  0  0  0  0  0  0  0  0  0
    1.4258    1.4734    0.2701 C   0  0  0  0  0  0  0  0  0  0  0  0
   -0.0442    1.3897   -0.1281 C   0  0  0  0  0  0  0  0  0  0  0  0
   -0.6675    0.0765    0.3455 C   0  0  0  0  0  0  0  0  0  0  0  0
   -0.5414   -0.0003    1.4319 H   0  0  0  0  0  0  0  0  0  0  0  0
    0.1112   -1.1003   -0.2623 C   0  0  0  0  0  0  0  0  0  0  0  0
    0.0179   -1.0668   -1.3602 H   0  0  0  0  0  0  0  0  0  0  0  0
    1.5934   -1.0078    0.1144 C   0  0  0  0  0  0  0  0  0  0  0  0
   -0.4582   -2.3074    0.2184 O   0  0  0  0  0  0  0  0  0  0  0  0
   -2.1805   -0.0350    0.0654 C   0  0  0  0  0  0  0  0  0  0  0  0
   -2.9829    0.8391    1.0285 C   0  0  0  0  0  0  0  0  0  0  0  0
   -2.5647    0.2995   -1.3750 C   0  0  0  0  0  0  0  0  0  0  0  0
    4.1266    1.3173   -0.2785 H   0  0  0  0  0  0  0  0  0  0  0  0
    3.7941    0.3181    1.1368 H   0  0  0  0  0  0  0  0  0  0  0  0
    4.2419   -0.4397   -0.3925 H   0  0  0  0  0  0  0  0  0  0  0  0
    1.5136    1.4388    1.3583 H   0  0  0  0  0  0  0  0  0  0  0  0
    1.8455    2.4220   -0.0705 H   0  0  0  0  0  0  0  0  0  0  0  0
   -0.5881    2.2290    0.3058 H   0  0  0  0  0  0  0  0  0  0  0  0
   -0.1198    1.4588   -1.2144 H   0  0  0  0  0  0  0  0  0  0  0  0
    1.6780   -1.1022    1.1998 H   0  0  0  0  0  0  0  0  0  0  0  0
    2.1350   -1.8424   -0.3389 H   0  0  0  0  0  0  0  0  0  0  0  0
    0.0507   -3.0543   -0.1233 H   0  0  0  0  0  0  0  0  0  0  0  0
   -2.4474   -1.0802    0.2566 H   0  0  0  0  0  0  0  0  0  0  0  0
   -4.0479    0.6833    0.8738 H   0  0  0  0  0  0  0  0  0  0  0  0
   -2.7682    1.8928    0.8673 H   0  0  0  0  0  0  0  0  0  0  0  0
   -2.7476    0.5914    2.0608 H   0  0  0  0  0  0  0  0  0  0  0  0
   -2.4190    1.3569   -1.5803 H   0  0  0  0  0  0  0  0  0  0  0  0
   -3.6145    0.0652   -1.5361 H   0  0  0  0  0  0  0  0  0  0  0  0
   -1.9786   -0.2803   -2.0832 H   0  0  0  0  0  0  0  0  0  0  0  0
  1  2  1  0  0  0  0
  2  3  1  0  0  0  0
  2  4  1  0  0  0  0
  4  5  1  0  0  0  0
  5  6  1  0  0  0  0
  6  7  1  0  0  0  0
  6  8  1  0  0  0  0
  8  9  1  0  0  0  0
  2 10  1  0  0  0  0
  8 10  1  0  0  0  0
  8 11  1  0  0  0  0
  6 12  1  0  0  0  0
 12 13  1  0  0  0  0
 12 14  1  0  0  0  0
  1 15  1  0  0  0  0
  1 16  1  0  0  0  0
  1 17  1  0  0  0  0
  4 18  1  0  0  0  0
  4 19  1  0  0  0  0
  5 20  1  0  0  0  0
  5 21  1  0  0  0  0
 10 22  1  0  0  0  0
 10 23  1  0  0  0  0
 11 24  1  0  0  0  0
 12 25  1  0  0  0  0
 13 26  1  0  0  0  0
 13 27  1  0  0  0  0
 13 28  1  0  0  0  0
 14 29  1  0  0  0  0
 14 30  1  0  0  0  0
 14 31  1  0  0  0  0
M  END
