11
 xtb: 6.7.1 (edcfbbe)
C            0.97798441961042        2.10304601002467       -0.38363733815601
C            0.34828664499922        0.85637237626838        0.20311118253344
H            0.11311312655066        0.98911745055336        1.26099251429841
C           -0.87861218603733        0.46393459387582       -0.58042708109081
Cl          -1.78050266216431       -0.93505301056386        0.17152349922815
Cl           1.58144061048720       -0.52292362181002        0.16552373808999
H            0.26483601390683        2.93002833705276       -0.30077410930750
H            1.88179275300108        2.37303753818640        0.16612856162915
H            1.22900560176373        1.96082001311297       -1.43833482827943
H           -1.57412856792600        1.30693447544582       -0.58848617018566
H           -0.63506329314717        0.17450768008356       -1.60412439149142
