 xtb: 6.7.1 (edcfbbe)
          04042516103D

 14 13  0     0  0            999 V2000
   -2.1136   -0.5341   -0.7090 C   0  0  0  0  0  0  0  0  0  0  0  0
   -1.3549   -0.3363    0.6071 C   0  0  0  0  0  0  0  0  0  0  0  0
   -0.0060    0.2658    0.3158 C   0  0  0  0  0  0  0  0  0  0  0  0
    0.2614    1.4477    0.3816 O   0  0  0  0  0  0  0  0  0  0  0  0
    0.8713   -0.6566   -0.0620 O   0  0  0  0  0  0  0  0  0  0  0  0
    2.1828   -0.2158   -0.4215 C   0  0  0  0  0  0  0  0  0  0  0  0
   -2.2375    0.4178   -1.2200 H   0  0  0  0  0  0  0  0  0  0  0  0
   -1.5683   -1.2133   -1.3591 H   0  0  0  0  0  0  0  0  0  0  0  0
   -3.0948   -0.9522   -0.5062 H   0  0  0  0  0  0  0  0  0  0  0  0
   -1.2122   -1.2977    1.0983 H   0  0  0  0  0  0  0  0  0  0  0  0
   -1.9032    0.3429    1.2586 H   0  0  0  0  0  0  0  0  0  0  0  0
    2.1251    0.4884   -1.2524 H   0  0  0  0  0  0  0  0  0  0  0  0
    2.7258   -1.1118   -0.7048 H   0  0  0  0  0  0  0  0  0  0  0  0
    2.6557    0.2775    0.4284 H   0  0  0  0  0  0  0  0  0  0  0  0
  1  2  1  0  0  0  0
  2  3  1  0  0  0  0
  3  4  2  0  0  0  0
  3  5  1  0  0  0  0
  5  6  1  0  0  0  0
  1  7  1  0  0  0  0
  1  8  1  0  0  0  0
  1  9  1  0  0  0  0
  2 10  1  0  0  0  0
  2 11  1  0  0  0  0
  6 12  1  0  0  0  0
  6 13  1  0  0  0  0
  6 14  1  0  0  0  0
M  END
