 xtb: 6.7.1 (edcfbbe)
          04062520053D

 27 27  0     0  0            999 V2000
   -3.2944    0.3690   -0.5613 C   0  0  0  0  0  0  0  0  0  0  0  0
   -1.8744    0.4934   -0.1205 C   0  0  0  0  0  0  0  0  0  0  0  0
   -1.1088    1.5621   -0.3061 C   0  0  0  0  0  0  0  0  0  0  0  0
    0.3158    1.5245    0.1483 C   0  0  0  0  0  0  0  0  0  0  0  0
    0.9462    0.2363   -0.4044 C   0  0  0  0  0  0  0  0  0  0  0  0
    0.8587    0.2945   -1.4950 H   0  0  0  0  0  0  0  0  0  0  0  0
    0.1510   -0.9980    0.0740 C   0  0  0  0  0  0  0  0  0  0  0  0
   -1.2518   -0.6592    0.6303 C   0  0  0  0  0  0  0  0  0  0  0  0
   -1.1367   -0.3356    1.6810 H   0  0  0  0  0  0  0  0  0  0  0  0
   -2.0991   -1.7900    0.5851 O   0  0  0  0  0  0  0  0  0  0  0  0
    2.4099    0.0621   -0.0729 C   0  0  0  0  0  0  0  0  0  0  0  0
    3.0081    0.6178    0.9686 C   0  0  0  0  0  0  0  0  0  0  0  0
    3.1521   -0.8328   -1.0211 C   0  0  0  0  0  0  0  0  0  0  0  0
   -3.6138    1.2692   -1.0786 H   0  0  0  0  0  0  0  0  0  0  0  0
   -3.9384    0.1958    0.2994 H   0  0  0  0  0  0  0  0  0  0  0  0
   -3.4014   -0.4899   -1.2213 H   0  0  0  0  0  0  0  0  0  0  0  0
   -1.4766    2.4402   -0.8132 H   0  0  0  0  0  0  0  0  0  0  0  0
    0.8704    2.3920   -0.2075 H   0  0  0  0  0  0  0  0  0  0  0  0
    0.3543    1.5130    1.2407 H   0  0  0  0  0  0  0  0  0  0  0  0
    0.0080   -1.6892   -0.7585 H   0  0  0  0  0  0  0  0  0  0  0  0
    0.7157   -1.5163    0.8527 H   0  0  0  0  0  0  0  0  0  0  0  0
   -1.7096   -2.4981    1.1136 H   0  0  0  0  0  0  0  0  0  0  0  0
    4.0523    0.4465    1.1704 H   0  0  0  0  0  0  0  0  0  0  0  0
    2.4984    1.2644    1.6602 H   0  0  0  0  0  0  0  0  0  0  0  0
    2.6573   -1.7996   -1.0940 H   0  0  0  0  0  0  0  0  0  0  0  0
    3.1648   -0.3915   -2.0168 H   0  0  0  0  0  0  0  0  0  0  0  0
    4.1768   -0.9850   -0.6941 H   0  0  0  0  0  0  0  0  0  0  0  0
  1  2  1  0  0  0  0
  2  3  2  0  0  0  0
  3  4  1  0  0  0  0
  4  5  1  0  0  0  0
  5  6  1  0  0  0  0
  5  7  1  0  0  0  0
  2  8  1  0  0  0  0
  7  8  1  0  0  0  0
  8  9  1  0  0  0  0
  8 10  1  0  0  0  0
  5 11  1  0  0  0  0
 11 12  2  0  0  0  0
 11 13  1  0  0  0  0
  1 14  1  0  0  0  0
  1 15  1  0  0  0  0
  1 16  1  0  0  0  0
  3 17  1  0  0  0  0
  4 18  1  0  0  0  0
  4 19  1  0  0  0  0
  7 20  1  0  0  0  0
  7 21  1  0  0  0  0
 10 22  1  0  0  0  0
 12 23  1  0  0  0  0
 12 24  1  0  0  0  0
 13 25  1  0  0  0  0
 13 26  1  0  0  0  0
 13 27  1  0  0  0  0
M  END
