 xtb: 6.7.1 (edcfbbe)
          04062518293D

 26 27  0     0  0            999 V2000
   -3.1434   -0.7038    1.7194 C   0  0  0  0  0  0  0  0  0  0  0  0
   -2.2329   -0.0852    0.7814 N   0  0  0  0  0  0  0  0  0  0  0  0
   -2.3490   -0.2301   -0.5438 C   0  0  0  0  0  0  0  0  0  0  0  0
   -3.2422   -0.8457   -1.0983 O   0  0  0  0  0  0  0  0  0  0  0  0
   -1.4161    0.3812   -1.3107 O   0  0  0  0  0  0  0  0  0  0  0  0
   -0.2493    0.9091   -0.7461 C   0  0  0  0  0  0  0  0  0  0  0  0
   -0.0728    2.2679   -0.7521 C   0  0  0  0  0  0  0  0  0  0  0  0
    1.1128    2.8244   -0.2492 C   0  0  0  0  0  0  0  0  0  0  0  0
    2.0950    2.0194    0.2548 C   0  0  0  0  0  0  0  0  0  0  0  0
    1.9456    0.6162    0.2644 C   0  0  0  0  0  0  0  0  0  0  0  0
    0.7553    0.0359   -0.2512 C   0  0  0  0  0  0  0  0  0  0  0  0
    0.6219   -1.3685   -0.2621 C   0  0  0  0  0  0  0  0  0  0  0  0
    1.6193   -2.1647    0.2284 C   0  0  0  0  0  0  0  0  0  0  0  0
    2.7899   -1.5947    0.7523 C   0  0  0  0  0  0  0  0  0  0  0  0
    2.9503   -0.2373    0.7673 C   0  0  0  0  0  0  0  0  0  0  0  0
   -2.6065   -1.4121    2.3496 H   0  0  0  0  0  0  0  0  0  0  0  0
   -3.9054   -1.2294    1.1476 H   0  0  0  0  0  0  0  0  0  0  0  0
   -3.6137    0.0573    2.3399 H   0  0  0  0  0  0  0  0  0  0  0  0
   -1.4640    0.4494    1.1587 H   0  0  0  0  0  0  0  0  0  0  0  0
   -0.8514    2.8982   -1.1517 H   0  0  0  0  0  0  0  0  0  0  0  0
    1.2327    3.8958   -0.2636 H   0  0  0  0  0  0  0  0  0  0  0  0
    3.0056    2.4442    0.6480 H   0  0  0  0  0  0  0  0  0  0  0  0
   -0.2757   -1.8071   -0.6758 H   0  0  0  0  0  0  0  0  0  0  0  0
    1.5101   -3.2381    0.2119 H   0  0  0  0  0  0  0  0  0  0  0  0
    3.5642   -2.2400    1.1375 H   0  0  0  0  0  0  0  0  0  0  0  0
    3.8520    0.2055    1.1619 H   0  0  0  0  0  0  0  0  0  0  0  0
  1  2  1  0  0  0  0
  2  3  4  0  0  0  0
  3  4  2  0  0  0  0
  3  5  1  0  0  0  0
  5  6  1  0  0  0  0
  6  7  2  0  0  0  0
  7  8  4  0  0  0  0
  8  9  2  0  0  0  0
  9 10  4  0  0  0  0
  6 11  4  0  0  0  0
 10 11  4  0  0  0  0
 11 12  4  0  0  0  0
 12 13  2  0  0  0  0
 13 14  4  0  0  0  0
 10 15  4  0  0  0  0
 14 15  2  0  0  0  0
  1 16  1  0  0  0  0
  1 17  1  0  0  0  0
  1 18  1  0  0  0  0
  2 19  1  0  0  0  0
  7 20  1  0  0  0  0
  8 21  1  0  0  0  0
  9 22  1  0  0  0  0
 12 23  1  0  0  0  0
 13 24  1  0  0  0  0
 14 25  1  0  0  0  0
 15 26  1  0  0  0  0
M  END
