20
CONF1
C -2.3845186072 -0.0000068386 0.0482175568
N -0.9849156242 0.0000001576 -0.3814595155
C -0.3217057013 1.2011836042 0.1551925764
C 1.1508832860 1.2518922006 -0.2307510640
C 1.8787000487 0.0000123314 0.2572735338
C 1.1508958536 -1.2518718258 -0.2307522111
C -0.3216933870 -1.2011780324 0.1551927767
H -2.8963165655 -0.8868056629 -0.3400789253
H -2.8963278566 0.8867827034 -0.3400862587
H -2.4883619404 -0.0000028549 1.1492244702
H -0.8466154324 2.0843508953 -0.2271608060
H -0.4076048558 1.2267252761 1.2609067418
H 1.2421636218 1.3343183381 -1.3214230254
H 1.6003488881 2.1535495287 0.2006974078
H 2.9201417406 0.0000188943 -0.0835400840
H 1.8960121194 0.0000123030 1.3559571140
H 1.2421764882 -1.3342969206 -1.3214238443
H 1.6003686352 -2.1535265040 0.2006941915
H -0.8465944957 -2.0843495682 -0.2271619030
H -0.4075908840 -1.2267178875 1.2609058822
20
CONF2
C -1.8545450608 -0.0000220752 -0.8047164525
N -1.1396878274 -0.0000103104 0.4775842261
C -0.2970711969 1.2058986389 0.6201620663
C 0.9176947395 1.2543080130 -0.3105763068
C 1.7750229896 0.0000169105 -0.1286215043
C 0.9177166845 -1.2542867312 -0.3105879326
C -0.2970359575 -1.2058940873 0.6201659296
H -2.4972860921 0.8851960135 -0.8611827970
H -2.4971630611 -0.8853255844 -0.8612319842
H -1.2103199348 0.0000476869 -1.6977302982
H -0.9317363491 2.0870472001 0.4698370495
H 0.0598753349 1.2372656616 1.6593343390
H 0.5924999196 1.3338268238 -1.3555393535
H 1.4989632440 2.1576727645 -0.0894886613
H 2.6185356078 0.0000263573 -0.8284854612
H 2.1980462554 0.0000160589 0.8864925185
H 0.5925054777 -1.3337944179 -1.3555470792
H 1.4990019903 -2.1576454760 -0.0895210046
H -0.9316784251 -2.0870621118 0.4698620259
H 0.0599245753 -1.2372376278 1.6593343833
