17
CONF1
C -2.8090529207 1.0602144764 -0.0006120140
O -2.2268983584 -0.2528876357 0.0002681125
C -0.8586205429 -0.3362608400 0.0001284491
C -0.3300504855 -1.6334080999 0.0000474167
C 1.0468845671 -1.8008317981 -0.0001280672
C 1.9111262055 -0.7063609437 -0.0002118862
C 1.3619231519 0.5727825833 -0.0000764983
C -0.0195026665 0.7763714846 0.0000931044
O 2.1473507209 1.7045035236 -0.0001100491
H -2.5188968275 1.6176233859 -0.8982116672
H -2.5195314780 1.6186061061 0.8965875714
H -3.8881381284 0.9033401475 -0.0008987334
H -1.0030649434 -2.4836752272 0.0000796288
H 1.4611421188 -2.8042156467 -0.0002413097
H 2.9882482096 -0.8402829466 -0.0003854749
H -0.4002251647 1.7896308873 0.0002143832
H 3.0770823866 1.4374887852 -0.0001936758
17
CONF3
C -3.1852019965 -0.3228452177 0.0001714223
O -2.0871098040 0.6036704988 -0.0000665988
C -0.8208217482 0.0764895597 -0.0000345107
C -0.5437339164 -1.2933545724 -0.0001674222
C 0.7897895309 -1.7015590068 -0.0001188176
C 1.8349919948 -0.7872155994 0.0000647525
C 1.5301871681 0.5768064443 0.0001992911
C 0.2126996657 1.0165005190 0.0001455560
O 2.5129373358 1.5421248048 0.0003827051
H -3.1690414152 -0.9510039130 0.8976601273
H -3.1693448555 -0.9511434582 -0.8972253270
H -4.0866657158 0.2907595050 0.0002710043
H -1.3348327516 -2.0313462254 -0.0003118700
H 1.0147440566 -2.7636168292 -0.0002313192
H 2.8699111622 -1.1151213904 0.0001038308
H -0.0149354581 2.0770500227 0.0002654817
H 3.3779831238 1.1084327822 0.0005840745
17
CONF4
C -2.8202748056 1.0359139256 0.0001156564
O -2.2260102750 -0.2711069261 -0.0000946196
C -0.8575893939 -0.3434422958 -0.0000166255
C -0.3175346612 -1.6346983734 0.0000008266
C 1.0619381877 -1.7898976465 0.0000668434
C 1.9162212899 -0.6894508985 0.0001137938
C 1.3575018212 0.5856393938 0.0000930876
C -0.0264315597 0.7774634192 0.0000317821
O 2.2235336323 1.6563113160 0.0001315966
H -3.8980106512 0.8692785695 0.0000497968
H -2.5363790980 1.5971013636 -0.8973109061
H -2.5364280867 1.5967698953 0.8977656857
H -0.9831524930 -2.4908942310 -0.0000288907
H 1.4839870001 -2.7900605943 0.0000886313
H 2.9940805196 -0.8080241845 0.0001676271
H -0.4223903063 1.7864421150 0.0000152487
H 1.7129981756 2.4779890023 0.0001451989
17
CONF2
C -3.1855679832 -0.3501456642 0.0014902113
O -2.0948219656 0.5849879501 -0.0005022067
C -0.8247177624 0.0679369436 -0.0002509702
C -0.5339511050 -1.2979117478 0.0001191210
C 0.8048923559 -1.6926456691 0.0003652172
C 1.8408057937 -0.7695203963 0.0002638102
C 1.5234398330 0.5913882881 -0.0001448292
C 0.2012577222 1.0183471653 -0.0004313796
O 2.5746971783 1.4812617705 -0.0001750501
H -4.0917709979 0.2564469316 0.0019798193
H -3.1634033306 -0.9774140464 0.8994531435
H -3.1654567543 -0.9789831738 -0.8954294979
H -1.3178364000 -2.0436467556 0.0001857570
H 1.0391921538 -2.7526668251 0.0006458033
H 2.8788403921 -1.0827358227 0.0005172776
H -0.0422106403 2.0768182242 -0.0006940010
H 2.2308947432 2.3857528370 -0.0003420514
