18
CONF1
C -1.8172134175 -1.4665539404 -0.0000574311
C -0.5231012947 -0.7047630038 0.0000070083
C 0.6982972494 -1.3829866579 0.0000083981
C 1.9103043499 -0.6955593563 -0.0000043286
C 1.9103014798 0.6955708155 -0.0000176144
C 0.6982914116 1.3829928220 0.0000146372
C -0.5231041977 0.7047637287 0.0000351542
C -1.8172192638 1.4665496916 -0.0000057959
H -1.6374066473 -2.5442989227 -0.0001601256
H -2.4249547032 -1.2207740455 0.8787199305
H -2.4249438345 -1.2205981810 -0.8787951599
H 0.6966986788 -2.4699755260 0.0000146176
H 2.8466432210 -1.2454276001 -0.0000050758
H 2.8466380014 1.2454430690 -0.0000466830
H 0.6966875070 2.4699816991 0.0000240797
H -2.4253915804 1.2200158062 0.8782573264
H -1.6374165125 2.5442950249 0.0008721687
H -2.4245164378 1.2213441129 -0.8792571291
