 xtb: 6.7.1 (edcfbbe)
          04062518003D

 24 24  0     0  0            999 V2000
   -2.2382   -0.9523   -0.3768 C   0  0  0  0  0  0  0  0  0  0  0  0
   -1.1609   -0.2145    0.4387 C   0  0  0  0  0  0  0  0  0  0  0  0
   -1.6141    0.1775    1.3593 H   0  0  0  0  0  0  0  0  0  0  0  0
   -0.5863    0.9507   -0.3783 C   0  0  0  0  0  0  0  0  0  0  0  0
   -0.4771    0.6544   -1.4277 H   0  0  0  0  0  0  0  0  0  0  0  0
    0.8018    1.3269    0.1596 C   0  0  0  0  0  0  0  0  0  0  0  0
    0.7415    1.5395    1.2401 H   0  0  0  0  0  0  0  0  0  0  0  0
    1.7650    0.1494   -0.0283 C   0  0  0  0  0  0  0  0  0  0  0  0
    2.1484    0.1965   -1.0544 H   0  0  0  0  0  0  0  0  0  0  0  0
    1.0161   -1.1986    0.1311 C   0  0  0  0  0  0  0  0  0  0  0  0
    1.6501   -1.8762    0.7221 H   0  0  0  0  0  0  0  0  0  0  0  0
   -0.1447   -1.0955    0.9115 O   0  0  0  0  0  0  0  0  0  0  0  0
    0.7683   -1.7082   -1.1420 O   0  0  0  0  0  0  0  0  0  0  0  0
    2.7964    0.2734    0.9174 O   0  0  0  0  0  0  0  0  0  0  0  0
    1.3131    2.4455   -0.5196 O   0  0  0  0  0  0  0  0  0  0  0  0
   -1.4408    2.0641   -0.3921 O   0  0  0  0  0  0  0  0  0  0  0  0
   -2.8283   -2.0257    0.3089 O   0  0  0  0  0  0  0  0  0  0  0  0
   -1.7863   -1.3821   -1.2725 H   0  0  0  0  0  0  0  0  0  0  0  0
   -2.9902   -0.2127   -0.6826 H   0  0  0  0  0  0  0  0  0  0  0  0
    0.4394   -2.6184   -1.0751 H   0  0  0  0  0  0  0  0  0  0  0  0
    3.6006   -0.1584    0.5979 H   0  0  0  0  0  0  0  0  0  0  0  0
    0.5690    3.0303   -0.7419 H   0  0  0  0  0  0  0  0  0  0  0  0
   -1.6159    2.3573    0.5157 H   0  0  0  0  0  0  0  0  0  0  0  0
   -3.2368   -1.7072    1.1261 H   0  0  0  0  0  0  0  0  0  0  0  0
  1  2  1  0  0  0  0
  2  3  1  0  0  0  0
  2  4  1  0  0  0  0
  4  5  1  0  0  0  0
  4  6  1  0  0  0  0
  6  7  1  0  0  0  0
  6  8  1  0  0  0  0
  8  9  1  0  0  0  0
  8 10  1  0  0  0  0
 10 11  1  0  0  0  0
  2 12  1  0  0  0  0
 10 12  1  0  0  0  0
 10 13  1  0  0  0  0
  8 14  1  0  0  0  0
  6 15  1  0  0  0  0
  4 16  1  0  0  0  0
  1 17  1  0  0  0  0
  1 18  1  0  0  0  0
  1 19  1  0  0  0  0
 13 20  1  0  0  0  0
 14 21  1  0  0  0  0
 15 22  1  0  0  0  0
 16 23  1  0  0  0  0
 17 24  1  0  0  0  0
M  END
