15
 xtb: 6.7.1 (edcfbbe)
C            1.84527592026391        0.97720293505963       -0.22543012387130
C            0.97508159785749       -0.11048002751905        0.39958713582247
C           -0.37437743942519       -0.27966345158571       -0.29346590771701
H           -0.20172861447154       -0.48507819305082       -1.36191171555109
C           -1.27856497239742        0.92892874077834       -0.15711410191346
O           -1.09491388764202       -1.39904840750421        0.28375928355052
H            1.98037319012279        0.80356267791874       -1.29893545362737
H            2.83657589426507        0.99237723183129        0.23718748951734
H            1.40506019837841        1.97068113027555       -0.09730774312697
H            0.79775740747613        0.10652940308536        1.46098065499391
H            1.50466845968064       -1.07117601423335        0.35015218687673
H           -2.25785189767607        0.72626919469049       -0.60134251587560
H           -1.41866284959788        1.18748277472520        0.89853974296245
H           -0.84854282507582        1.79231478760585       -0.67128216992347
H           -0.51918028524928       -2.17230524437779        0.21811225910661
