 xtb: 6.7.1 (edcfbbe)
          04042520253D

 15 14  0     0  0            999 V2000
    1.8817    0.9126   -0.2300 C   0  0  0  0  0  0  0  0  0  0  0  0
    0.9501   -0.0882    0.4399 C   0  0  0  0  0  0  0  0  0  0  0  0
   -0.3828   -0.2673   -0.2934 C   0  0  0  0  0  0  0  0  0  0  0  0
   -0.1754   -0.4628   -1.3595 H   0  0  0  0  0  0  0  0  0  0  0  0
   -1.2844    0.9593   -0.1744 C   0  0  0  0  0  0  0  0  0  0  0  0
   -1.0002   -1.4165    0.2713 O   0  0  0  0  0  0  0  0  0  0  0  0
    2.8373    0.9295    0.2870 H   0  0  0  0  0  0  0  0  0  0  0  0
    1.4637    1.9151   -0.2043 H   0  0  0  0  0  0  0  0  0  0  0  0
    2.0561    0.6357   -1.2672 H   0  0  0  0  0  0  0  0  0  0  0  0
    0.7422    0.2165    1.4671 H   0  0  0  0  0  0  0  0  0  0  0  0
    1.4293   -1.0687    0.4792 H   0  0  0  0  0  0  0  0  0  0  0  0
   -0.7959    1.8264   -0.6070 H   0  0  0  0  0  0  0  0  0  0  0  0
   -2.2219    0.7957   -0.7015 H   0  0  0  0  0  0  0  0  0  0  0  0
   -1.5007    1.1574    0.8728 H   0  0  0  0  0  0  0  0  0  0  0  0
   -1.8787   -1.5284   -0.1163 H   0  0  0  0  0  0  0  0  0  0  0  0
  1  2  1  0  0  0  0
  2  3  1  0  0  0  0
  3  4  1  0  0  0  0
  3  5  1  0  0  0  0
  3  6  1  0  0  0  0
  1  7  1  0  0  0  0
  1  8  1  0  0  0  0
  1  9  1  0  0  0  0
  2 10  1  0  0  0  0
  2 11  1  0  0  0  0
  5 12  1  0  0  0  0
  5 13  1  0  0  0  0
  5 14  1  0  0  0  0
  6 15  1  0  0  0  0
M  END
