 xtb: 6.7.1 (edcfbbe)
          04062521023D

 27 27  0     0  0            999 V2000
   -3.4181    0.5922    0.0659 C   0  0  0  0  0  0  0  0  0  0  0  0
   -1.9231    0.4972    0.0737 C   0  0  0  0  0  0  0  0  0  0  0  0
   -1.1292    1.5061   -0.2592 C   0  0  0  0  0  0  0  0  0  0  0  0
    0.3663    1.4496   -0.2656 C   0  0  0  0  0  0  0  0  0  0  0  0
    0.8716    0.0021   -0.2894 C   0  0  0  0  0  0  0  0  0  0  0  0
    0.6239   -0.4191   -1.2703 H   0  0  0  0  0  0  0  0  0  0  0  0
    0.1246   -0.7915    0.7847 C   0  0  0  0  0  0  0  0  0  0  0  0
   -1.3736   -0.8571    0.4681 C   0  0  0  0  0  0  0  0  0  0  0  0
   -1.9137   -1.2166    1.3534 H   0  0  0  0  0  0  0  0  0  0  0  0
   -1.6719   -1.8378   -0.5197 O   0  0  0  0  0  0  0  0  0  0  0  0
    2.3713   -0.0582   -0.1309 C   0  0  0  0  0  0  0  0  0  0  0  0
    3.1552   -0.3024   -1.1703 C   0  0  0  0  0  0  0  0  0  0  0  0
    2.9323    0.1765    1.2384 C   0  0  0  0  0  0  0  0  0  0  0  0
   -3.8370   -0.2590   -0.4689 H   0  0  0  0  0  0  0  0  0  0  0  0
   -3.7512    1.5132   -0.4042 H   0  0  0  0  0  0  0  0  0  0  0  0
   -3.7986    0.5602    1.0865 H   0  0  0  0  0  0  0  0  0  0  0  0
   -1.5629    2.4599   -0.5296 H   0  0  0  0  0  0  0  0  0  0  0  0
    0.7526    1.9911   -1.1322 H   0  0  0  0  0  0  0  0  0  0  0  0
    0.7392    1.9621    0.6264 H   0  0  0  0  0  0  0  0  0  0  0  0
    0.5126   -1.8103    0.8466 H   0  0  0  0  0  0  0  0  0  0  0  0
    0.2486   -0.3097    1.7544 H   0  0  0  0  0  0  0  0  0  0  0  0
   -1.2177   -1.5992   -1.3391 H   0  0  0  0  0  0  0  0  0  0  0  0
    4.2281   -0.3312   -1.0804 H   0  0  0  0  0  0  0  0  0  0  0  0
    2.7596   -0.4843   -2.1557 H   0  0  0  0  0  0  0  0  0  0  0  0
    2.7020   -0.6670    1.8873 H   0  0  0  0  0  0  0  0  0  0  0  0
    4.0119    0.2902    1.1933 H   0  0  0  0  0  0  0  0  0  0  0  0
    2.5045    1.0699    1.6877 H   0  0  0  0  0  0  0  0  0  0  0  0
  1  2  1  0  0  0  0
  2  3  2  0  0  0  0
  3  4  1  0  0  0  0
  4  5  1  0  0  0  0
  5  6  1  0  0  0  0
  5  7  1  0  0  0  0
  2  8  1  0  0  0  0
  7  8  1  0  0  0  0
  8  9  1  0  0  0  0
  8 10  1  0  0  0  0
  5 11  1  0  0  0  0
 11 12  2  0  0  0  0
 11 13  1  0  0  0  0
  1 14  1  0  0  0  0
  1 15  1  0  0  0  0
  1 16  1  0  0  0  0
  3 17  1  0  0  0  0
  4 18  1  0  0  0  0
  4 19  1  0  0  0  0
  7 20  1  0  0  0  0
  7 21  1  0  0  0  0
 10 22  1  0  0  0  0
 12 23  1  0  0  0  0
 12 24  1  0  0  0  0
 13 25  1  0  0  0  0
 13 26  1  0  0  0  0
 13 27  1  0  0  0  0
M  END
