 xtb: 6.7.1 (edcfbbe)
          04052500023D

 17 17  0     0  0            999 V2000
   -3.2991    0.2611   -0.0092 C   0  0  0  0  0  0  0  0  0  0  0  0
   -1.8164    0.0872    0.0091 C   0  0  0  0  0  0  0  0  0  0  0  0
   -0.9733    1.1981    0.0060 C   0  0  0  0  0  0  0  0  0  0  0  0
    0.3952    1.0437    0.0013 C   0  0  0  0  0  0  0  0  0  0  0  0
    0.9613   -0.2362   -0.0004 C   0  0  0  0  0  0  0  0  0  0  0  0
    0.1190   -1.3519    0.0018 C   0  0  0  0  0  0  0  0  0  0  0  0
   -1.2495   -1.1865    0.0065 C   0  0  0  0  0  0  0  0  0  0  0  0
    2.4032   -0.4034   -0.0037 C   0  0  0  0  0  0  0  0  0  0  0  0
    3.2254    0.4942   -0.0053 O   0  0  0  0  0  0  0  0  0  0  0  0
   -3.5901    1.1601    0.5273 H   0  0  0  0  0  0  0  0  0  0  0  0
   -3.6396    0.3609   -1.0396 H   0  0  0  0  0  0  0  0  0  0  0  0
   -3.7976   -0.5989    0.4291 H   0  0  0  0  0  0  0  0  0  0  0  0
   -1.4013    2.1892    0.0084 H   0  0  0  0  0  0  0  0  0  0  0  0
    1.0574    1.8968    0.0004 H   0  0  0  0  0  0  0  0  0  0  0  0
    0.5503   -2.3418    0.0015 H   0  0  0  0  0  0  0  0  0  0  0  0
   -1.8939   -2.0526    0.0092 H   0  0  0  0  0  0  0  0  0  0  0  0
    2.7418   -1.4571   -0.0055 H   0  0  0  0  0  0  0  0  0  0  0  0
  1  2  1  0  0  0  0
  2  3  4  0  0  0  0
  3  4  4  0  0  0  0
  4  5  4  0  0  0  0
  5  6  4  0  0  0  0
  2  7  4  0  0  0  0
  6  7  4  0  0  0  0
  5  8  1  0  0  0  0
  8  9  2  0  0  0  0
  1 10  1  0  0  0  0
  1 11  1  0  0  0  0
  1 12  1  0  0  0  0
  3 13  1  0  0  0  0
  4 14  1  0  0  0  0
  6 15  1  0  0  0  0
  7 16  1  0  0  0  0
  8 17  1  0  0  0  0
M  END
