 xtb: 6.7.1 (edcfbbe)
          04042521563D

 17 17  0     0  0            999 V2000
   -2.8195    1.0441   -0.0005 C   0  0  0  0  0  0  0  0  0  0  0  0
   -2.2174   -0.2363   -0.0001 O   0  0  0  0  0  0  0  0  0  0  0  0
   -0.8560   -0.3189   -0.0001 C   0  0  0  0  0  0  0  0  0  0  0  0
   -0.3259   -1.6110   -0.0000 C   0  0  0  0  0  0  0  0  0  0  0  0
    1.0403   -1.7927   -0.0000 C   0  0  0  0  0  0  0  0  0  0  0  0
    1.9013   -0.7072   -0.0001 C   0  0  0  0  0  0  0  0  0  0  0  0
    1.3758    0.5770   -0.0001 C   0  0  0  0  0  0  0  0  0  0  0  0
   -0.0029    0.7740   -0.0001 C   0  0  0  0  0  0  0  0  0  0  0  0
    2.1609    1.6879   -0.0002 O   0  0  0  0  0  0  0  0  0  0  0  0
   -2.5439    1.6091   -0.8947 H   0  0  0  0  0  0  0  0  0  0  0  0
   -2.5443    1.6095    0.8936 H   0  0  0  0  0  0  0  0  0  0  0  0
   -3.8907    0.8562   -0.0007 H   0  0  0  0  0  0  0  0  0  0  0  0
   -1.0070   -2.4461   -0.0000 H   0  0  0  0  0  0  0  0  0  0  0  0
    1.4450   -2.7928   -0.0000 H   0  0  0  0  0  0  0  0  0  0  0  0
    2.9698   -0.8601   -0.0001 H   0  0  0  0  0  0  0  0  0  0  0  0
   -0.3634    1.7892   -0.0001 H   0  0  0  0  0  0  0  0  0  0  0  0
    3.0980    1.4407   -0.0001 H   0  0  0  0  0  0  0  0  0  0  0  0
  1  2  1  0  0  0  0
  2  3  1  0  0  0  0
  3  4  4  0  0  0  0
  4  5  4  0  0  0  0
  5  6  4  0  0  0  0
  6  7  4  0  0  0  0
  3  8  4  0  0  0  0
  7  8  4  0  0  0  0
  7  9  1  0  0  0  0
  1 10  1  0  0  0  0
  1 11  1  0  0  0  0
  1 12  1  0  0  0  0
  4 13  1  0  0  0  0
  5 14  1  0  0  0  0
  6 15  1  0  0  0  0
  8 16  1  0  0  0  0
  9 17  1  0  0  0  0
M  END
