24
 xtb: 6.7.1 (edcfbbe)
C           -2.56847422820903       -0.89766750810915        0.33537826698163
C           -1.14517598642551       -0.43997068927626        0.58991295633468
H           -0.98967837552442       -0.39378672576432        1.68201626028784
C           -0.81820936573891        0.92416753822070       -0.02389383028854
H           -1.03210540591003        0.89881556418711       -1.09788290811174
C            0.65684937472831        1.26255130226858        0.18517835023390
H            0.83421263429614        1.39246605929554        1.26675941258344
C            1.54426009491980        0.13915786810952       -0.31669962331210
H            1.44267304325210        0.04744309662320       -1.40918823137726
C            1.10314471681294       -1.17896747185449        0.31684670734472
H            1.23314327045734       -1.14466044977120        1.41118853908692
O           -0.27296159771827       -1.43095294038530        0.01434946452015
O            1.86476526443726       -2.21004750289973       -0.25271865070239
O            2.89269644629049        0.44539074179817        0.04381561742900
O            1.01428887668352        2.45898714505800       -0.51343893280709
O           -1.64672520242294        1.95697754243850        0.51932031233500
O           -2.90246265621110       -0.94680192182147       -1.05648833592663
H           -3.25931201653852       -0.19048818735198        0.80114297982626
H           -2.71208096690217       -1.88076663597306        0.80336904528306
H            1.83498774219994       -2.97352573208680        0.34008861564426
H            3.45809537492640       -0.22592554848154       -0.36086512416147
H            0.43199869785583        3.15786115567397       -0.18471723512534
H           -1.49345032103709        1.98386601503099        1.47545619172867
H           -2.33033884625961       -1.60841544135991       -1.46731951227552
