 xtb: 6.7.1 (edcfbbe)
          04062508313D

 24 24  0     0  0            999 V2000
   -3.0364    0.6972    0.6378 C   0  0  0  0  0  0  0  0  0  0  0  0
   -1.8440    0.7248   -0.1492 O   0  0  0  0  0  0  0  0  0  0  0  0
   -1.0697   -0.3565   -0.1221 C   0  0  0  0  0  0  0  0  0  0  0  0
   -1.3438   -1.3383    0.5360 O   0  0  0  0  0  0  0  0  0  0  0  0
    0.1307   -0.2231   -1.0369 C   0  0  0  0  0  0  0  0  0  0  0  0
    1.1661   -1.3126   -0.7481 C   0  0  0  0  0  0  0  0  0  0  0  0
    1.8485   -1.0809    0.5980 C   0  0  0  0  0  0  0  0  0  0  0  0
    2.4820    0.3057    0.6543 C   0  0  0  0  0  0  0  0  0  0  0  0
    1.4279    1.3802    0.4054 C   0  0  0  0  0  0  0  0  0  0  0  0
    0.7651    1.1696   -0.9527 C   0  0  0  0  0  0  0  0  0  0  0  0
   -2.7931    0.4850    1.6799 H   0  0  0  0  0  0  0  0  0  0  0  0
   -3.7093   -0.0773    0.2675 H   0  0  0  0  0  0  0  0  0  0  0  0
   -3.4797    1.6823    0.5324 H   0  0  0  0  0  0  0  0  0  0  0  0
   -0.2691   -0.3658   -2.0486 H   0  0  0  0  0  0  0  0  0  0  0  0
    0.6738   -2.2866   -0.7455 H   0  0  0  0  0  0  0  0  0  0  0  0
    1.9136   -1.3041   -1.5426 H   0  0  0  0  0  0  0  0  0  0  0  0
    1.1070   -1.1794    1.3941 H   0  0  0  0  0  0  0  0  0  0  0  0
    2.6092   -1.8472    0.7564 H   0  0  0  0  0  0  0  0  0  0  0  0
    2.9488    0.4596    1.6287 H   0  0  0  0  0  0  0  0  0  0  0  0
    3.2603    0.3795   -0.1082 H   0  0  0  0  0  0  0  0  0  0  0  0
    0.6703    1.3338    1.1919 H   0  0  0  0  0  0  0  0  0  0  0  0
    1.8867    2.3697    0.4401 H   0  0  0  0  0  0  0  0  0  0  0  0
    0.0046    1.9313   -1.1246 H   0  0  0  0  0  0  0  0  0  0  0  0
    1.5190    1.2520   -1.7372 H   0  0  0  0  0  0  0  0  0  0  0  0
  1  2  1  0  0  0  0
  2  3  1  0  0  0  0
  3  4  2  0  0  0  0
  3  5  1  0  0  0  0
  5  6  1  0  0  0  0
  6  7  1  0  0  0  0
  7  8  1  0  0  0  0
  8  9  1  0  0  0  0
  5 10  1  0  0  0  0
  9 10  1  0  0  0  0
  1 11  1  0  0  0  0
  1 12  1  0  0  0  0
  1 13  1  0  0  0  0
  5 14  1  0  0  0  0
  6 15  1  0  0  0  0
  6 16  1  0  0  0  0
  7 17  1  0  0  0  0
  7 18  1  0  0  0  0
  8 19  1  0  0  0  0
  8 20  1  0  0  0  0
  9 21  1  0  0  0  0
  9 22  1  0  0  0  0
 10 23  1  0  0  0  0
 10 24  1  0  0  0  0
M  END
