 xtb: 6.7.1 (edcfbbe)
          04062518003D

 24 24  0     0  0            999 V2000
   -2.5625   -0.8694    0.2749 C   0  0  0  0  0  0  0  0  0  0  0  0
   -1.1343   -0.4298    0.6255 C   0  0  0  0  0  0  0  0  0  0  0  0
   -1.0339   -0.3560    1.7191 H   0  0  0  0  0  0  0  0  0  0  0  0
   -0.8216    0.9474    0.0257 C   0  0  0  0  0  0  0  0  0  0  0  0
   -1.0532    0.9298   -1.0498 H   0  0  0  0  0  0  0  0  0  0  0  0
    0.6659    1.2830    0.1968 C   0  0  0  0  0  0  0  0  0  0  0  0
    0.8760    1.4237    1.2698 H   0  0  0  0  0  0  0  0  0  0  0  0
    1.5378    0.1333   -0.3130 C   0  0  0  0  0  0  0  0  0  0  0  0
    1.3935    0.0196   -1.3977 H   0  0  0  0  0  0  0  0  0  0  0  0
    1.0977   -1.1741    0.3626 C   0  0  0  0  0  0  0  0  0  0  0  0
    1.2676   -1.0825    1.4567 H   0  0  0  0  0  0  0  0  0  0  0  0
   -0.2653   -1.4291    0.1247 O   0  0  0  0  0  0  0  0  0  0  0  0
    1.8379   -2.2066   -0.1773 O   0  0  0  0  0  0  0  0  0  0  0  0
    2.8751    0.4416   -0.0151 O   0  0  0  0  0  0  0  0  0  0  0  0
    0.9166    2.4762   -0.5031 O   0  0  0  0  0  0  0  0  0  0  0  0
   -1.6272    1.8862    0.6899 O   0  0  0  0  0  0  0  0  0  0  0  0
   -2.7392   -1.0485   -1.1048 O   0  0  0  0  0  0  0  0  0  0  0  0
   -3.2527   -0.0834    0.5834 H   0  0  0  0  0  0  0  0  0  0  0  0
   -2.7894   -1.7948    0.8176 H   0  0  0  0  0  0  0  0  0  0  0  0
    1.4691   -3.0597    0.1001 H   0  0  0  0  0  0  0  0  0  0  0  0
    3.4376   -0.2993   -0.2852 H   0  0  0  0  0  0  0  0  0  0  0  0
    1.8682    2.6556   -0.4759 H   0  0  0  0  0  0  0  0  0  0  0  0
   -1.4153    2.7661    0.3429 H   0  0  0  0  0  0  0  0  0  0  0  0
   -2.1044   -1.7152   -1.4066 H   0  0  0  0  0  0  0  0  0  0  0  0
  1  2  1  0  0  0  0
  2  3  1  0  0  0  0
  2  4  1  0  0  0  0
  4  5  1  0  0  0  0
  4  6  1  0  0  0  0
  6  7  1  0  0  0  0
  6  8  1  0  0  0  0
  8  9  1  0  0  0  0
  8 10  1  0  0  0  0
 10 11  1  0  0  0  0
  2 12  1  0  0  0  0
 10 12  1  0  0  0  0
 10 13  1  0  0  0  0
  8 14  1  0  0  0  0
  6 15  1  0  0  0  0
  4 16  1  0  0  0  0
  1 17  1  0  0  0  0
  1 18  1  0  0  0  0
  1 19  1  0  0  0  0
 13 20  1  0  0  0  0
 14 21  1  0  0  0  0
 15 22  1  0  0  0  0
 16 23  1  0  0  0  0
 17 24  1  0  0  0  0
M  END
