 xtb: 6.7.1 (edcfbbe)
          04052508553D

 20 20  0     0  0            999 V2000
   -2.9960    1.2216    0.0094 C   0  0  0  0  0  0  0  0  0  0  0  0
   -1.7524    0.3840   -0.0069 C   0  0  0  0  0  0  0  0  0  0  0  0
   -1.8320   -0.9998   -0.0058 C   0  0  0  0  0  0  0  0  0  0  0  0
   -0.6859   -1.7762   -0.0017 C   0  0  0  0  0  0  0  0  0  0  0  0
    0.5624   -1.1789    0.0013 C   0  0  0  0  0  0  0  0  0  0  0  0
    0.6553    0.2216    0.0004 C   0  0  0  0  0  0  0  0  0  0  0  0
   -0.4979    0.9860   -0.0033 C   0  0  0  0  0  0  0  0  0  0  0  0
    1.9421    0.7155    0.0014 O   0  0  0  0  0  0  0  0  0  0  0  0
    2.1233    2.1163   -0.0032 C   0  0  0  0  0  0  0  0  0  0  0  0
    1.6855   -1.9543    0.0034 O   0  0  0  0  0  0  0  0  0  0  0  0
   -3.7546    0.7910   -0.6395 H   0  0  0  0  0  0  0  0  0  0  0  0
   -3.4034    1.2632    1.0191 H   0  0  0  0  0  0  0  0  0  0  0  0
   -2.7864    2.2367   -0.3164 H   0  0  0  0  0  0  0  0  0  0  0  0
   -2.7978   -1.4811   -0.0087 H   0  0  0  0  0  0  0  0  0  0  0  0
   -0.7384   -2.8531   -0.0020 H   0  0  0  0  0  0  0  0  0  0  0  0
   -0.4352    2.0627   -0.0040 H   0  0  0  0  0  0  0  0  0  0  0  0
    1.6890    2.5664   -0.8996 H   0  0  0  0  0  0  0  0  0  0  0  0
    3.2007    2.2655   -0.0033 H   0  0  0  0  0  0  0  0  0  0  0  0
    1.6882    2.5727    0.8896 H   0  0  0  0  0  0  0  0  0  0  0  0
    2.4636   -1.3741    0.0042 H   0  0  0  0  0  0  0  0  0  0  0  0
  1  2  1  0  0  0  0
  2  3  4  0  0  0  0
  3  4  4  0  0  0  0
  4  5  4  0  0  0  0
  5  6  4  0  0  0  0
  2  7  4  0  0  0  0
  6  7  4  0  0  0  0
  6  8  1  0  0  0  0
  8  9  1  0  0  0  0
  5 10  1  0  0  0  0
  1 11  1  0  0  0  0
  1 12  1  0  0  0  0
  1 13  1  0  0  0  0
  3 14  1  0  0  0  0
  4 15  1  0  0  0  0
  7 16  1  0  0  0  0
  9 17  1  0  0  0  0
  9 18  1  0  0  0  0
  9 19  1  0  0  0  0
 10 20  1  0  0  0  0
M  END
