 xtb: 6.7.1 (edcfbbe)
          04062518003D

 24 24  0     0  0            999 V2000
   -2.2525   -0.9634   -0.3719 C   0  0  0  0  0  0  0  0  0  0  0  0
   -1.1477   -0.2215    0.3891 C   0  0  0  0  0  0  0  0  0  0  0  0
   -1.5874    0.2216    1.2912 H   0  0  0  0  0  0  0  0  0  0  0  0
   -0.5532    0.9060   -0.4572 C   0  0  0  0  0  0  0  0  0  0  0  0
   -0.3671    0.5517   -1.4828 H   0  0  0  0  0  0  0  0  0  0  0  0
    0.7880    1.3225    0.1588 C   0  0  0  0  0  0  0  0  0  0  0  0
    0.6200    1.5597    1.2221 H   0  0  0  0  0  0  0  0  0  0  0  0
    1.7797    0.1524    0.0491 C   0  0  0  0  0  0  0  0  0  0  0  0
    2.2747    0.2041   -0.9264 H   0  0  0  0  0  0  0  0  0  0  0  0
    1.0375   -1.2031    0.1098 C   0  0  0  0  0  0  0  0  0  0  0  0
    1.6607   -1.9100    0.6763 H   0  0  0  0  0  0  0  0  0  0  0  0
   -0.1531   -1.1360    0.8576 O   0  0  0  0  0  0  0  0  0  0  0  0
    0.8295   -1.6430   -1.1950 O   0  0  0  0  0  0  0  0  0  0  0  0
    2.8038    0.2370    1.0051 O   0  0  0  0  0  0  0  0  0  0  0  0
    1.2362    2.4671   -0.5245 O   0  0  0  0  0  0  0  0  0  0  0  0
   -1.4731    1.9645   -0.4674 O   0  0  0  0  0  0  0  0  0  0  0  0
   -2.9588   -1.8560    0.4529 O   0  0  0  0  0  0  0  0  0  0  0  0
   -1.8121   -1.4904   -1.2283 H   0  0  0  0  0  0  0  0  0  0  0  0
   -2.9753   -0.2308   -0.7350 H   0  0  0  0  0  0  0  0  0  0  0  0
    0.6288   -2.5913   -1.2098 H   0  0  0  0  0  0  0  0  0  0  0  0
    2.4325    0.1652    1.8972 H   0  0  0  0  0  0  0  0  0  0  0  0
    2.1033    2.7281   -0.1832 H   0  0  0  0  0  0  0  0  0  0  0  0
   -1.0274    2.7421   -0.8400 H   0  0  0  0  0  0  0  0  0  0  0  0
   -2.3180   -2.3993    0.9353 H   0  0  0  0  0  0  0  0  0  0  0  0
  1  2  1  0  0  0  0
  2  3  1  0  0  0  0
  2  4  1  0  0  0  0
  4  5  1  0  0  0  0
  4  6  1  0  0  0  0
  6  7  1  0  0  0  0
  6  8  1  0  0  0  0
  8  9  1  0  0  0  0
  8 10  1  0  0  0  0
 10 11  1  0  0  0  0
  2 12  1  0  0  0  0
 10 12  1  0  0  0  0
 10 13  1  0  0  0  0
  8 14  1  0  0  0  0
  6 15  1  0  0  0  0
  4 16  1  0  0  0  0
  1 17  1  0  0  0  0
  1 18  1  0  0  0  0
  1 19  1  0  0  0  0
 13 20  1  0  0  0  0
 14 21  1  0  0  0  0
 15 22  1  0  0  0  0
 16 23  1  0  0  0  0
 17 24  1  0  0  0  0
M  END
