 xtb: 6.7.1 (edcfbbe)
          04062518003D

 24 24  0     0  0            999 V2000
   -2.4094   -1.1485   -0.2649 C   0  0  0  0  0  0  0  0  0  0  0  0
   -1.0630   -0.6121    0.2520 C   0  0  0  0  0  0  0  0  0  0  0  0
   -1.0822   -0.5891    1.3553 H   0  0  0  0  0  0  0  0  0  0  0  0
   -0.7624    0.8001   -0.2772 C   0  0  0  0  0  0  0  0  0  0  0  0
   -0.7773    0.7807   -1.3728 H   0  0  0  0  0  0  0  0  0  0  0  0
    0.6332    1.2346    0.1894 C   0  0  0  0  0  0  0  0  0  0  0  0
    0.6284    1.3422    1.2888 H   0  0  0  0  0  0  0  0  0  0  0  0
    1.6912    0.1832   -0.1719 C   0  0  0  0  0  0  0  0  0  0  0  0
    1.8286    0.1693   -1.2622 H   0  0  0  0  0  0  0  0  0  0  0  0
    1.2350   -1.2183    0.2611 C   0  0  0  0  0  0  0  0  0  0  0  0
    1.2619   -1.2584    1.3706 H   0  0  0  0  0  0  0  0  0  0  0  0
   -0.0702   -1.5151   -0.1884 O   0  0  0  0  0  0  0  0  0  0  0  0
    2.0870   -2.1430   -0.2982 O   0  0  0  0  0  0  0  0  0  0  0  0
    2.9019    0.4486    0.4841 O   0  0  0  0  0  0  0  0  0  0  0  0
    1.0232    2.4499   -0.4043 O   0  0  0  0  0  0  0  0  0  0  0  0
   -1.7340    1.7439    0.1029 O   0  0  0  0  0  0  0  0  0  0  0  0
   -3.5091   -0.4603    0.2640 O   0  0  0  0  0  0  0  0  0  0  0  0
   -2.5098   -2.1892    0.0493 H   0  0  0  0  0  0  0  0  0  0  0  0
   -2.4012   -1.1152   -1.3608 H   0  0  0  0  0  0  0  0  0  0  0  0
    1.7500   -3.0387   -0.1356 H   0  0  0  0  0  0  0  0  0  0  0  0
    3.2244    1.3151    0.1912 H   0  0  0  0  0  0  0  0  0  0  0  0
    0.2709    3.0619   -0.3922 H   0  0  0  0  0  0  0  0  0  0  0  0
   -1.7696    1.8055    1.0700 H   0  0  0  0  0  0  0  0  0  0  0  0
   -3.4690    0.4651   -0.0304 H   0  0  0  0  0  0  0  0  0  0  0  0
  1  2  1  0  0  0  0
  2  3  1  0  0  0  0
  2  4  1  0  0  0  0
  4  5  1  0  0  0  0
  4  6  1  0  0  0  0
  6  7  1  0  0  0  0
  6  8  1  0  0  0  0
  8  9  1  0  0  0  0
  8 10  1  0  0  0  0
 10 11  1  0  0  0  0
  2 12  1  0  0  0  0
 10 12  1  0  0  0  0
 10 13  1  0  0  0  0
  8 14  1  0  0  0  0
  6 15  1  0  0  0  0
  4 16  1  0  0  0  0
  1 17  1  0  0  0  0
  1 18  1  0  0  0  0
  1 19  1  0  0  0  0
 13 20  1  0  0  0  0
 14 21  1  0  0  0  0
 15 22  1  0  0  0  0
 16 23  1  0  0  0  0
 17 24  1  0  0  0  0
M  END
