25
 xtb: 6.7.1 (edcfbbe)
C            1.72424511278783        1.48646042341058        0.43199490893287
C            0.46194469559915        0.78767464074554        0.91094470056440
H            0.25875654465073        1.14124576610507        1.92490066956010
C            0.46078403661368       -0.78629260743280        0.91268112677335
H            0.25701988425778       -1.13739449092964        1.92738326611697
C            1.72207401523773       -1.48802627852100        0.43535501860750
O            2.78475032154644       -1.28621090821949        1.41177767186614
S            3.80765735157596       -0.00159403362163        1.05933464320902
O            4.73714582898075       -0.00099597300978        2.20422756089436
O            2.78661649753116        1.28526685088226        1.40889427909104
C           -0.77514295930668       -1.12423467941335        0.02123513043277
C           -0.46412366370850       -0.67063867244836       -1.39905846772610
C           -0.46318925468486        0.66850314550992       -1.40048242457771
C           -0.77352925348575        1.12553153431438        0.01885449270096
C           -1.77541098045394        0.00179994594814        0.42577971019884
Cl          -3.28711975267050        0.00187778394469       -0.53235442773879
Cl          -2.21617759246161        0.00395271365917        2.15523938432254
Cl          -1.37936522739463        2.78359122256617        0.18033297491741
Cl          -0.08803687605169        1.71823786920752       -2.69035172695551
Cl          -0.09045907338212       -1.72359797899731       -2.68673351978288
Cl          -1.38340339074014       -2.78105930019173        0.18617844859983
H            1.56798528407710        2.56735948395899        0.39676671281503
H            2.05573890256186        1.15709462765535       -0.56028976020079
H            1.56417682471212       -2.56876376509098        0.40259427738145
H            2.05406175533022       -1.16146134802824       -0.55767952470289
