 xtb: 6.7.1 (edcfbbe)
          04062518003D

 24 24  0     0  0            999 V2000
   -2.4076   -1.2004   -0.1524 C   0  0  0  0  0  0  0  0  0  0  0  0
   -1.0797   -0.6300    0.3888 C   0  0  0  0  0  0  0  0  0  0  0  0
   -1.0952   -0.5834    1.4898 H   0  0  0  0  0  0  0  0  0  0  0  0
   -0.8066    0.7942   -0.1190 C   0  0  0  0  0  0  0  0  0  0  0  0
   -0.9862    0.8258   -1.2052 H   0  0  0  0  0  0  0  0  0  0  0  0
    0.6464    1.2241    0.1687 C   0  0  0  0  0  0  0  0  0  0  0  0
    0.7636    1.3658    1.2501 H   0  0  0  0  0  0  0  0  0  0  0  0
    1.6352    0.1502   -0.2853 C   0  0  0  0  0  0  0  0  0  0  0  0
    1.5807    0.0304   -1.3797 H   0  0  0  0  0  0  0  0  0  0  0  0
    1.2243   -1.1940    0.3410 C   0  0  0  0  0  0  0  0  0  0  0  0
    1.2828   -1.1056    1.4467 H   0  0  0  0  0  0  0  0  0  0  0  0
   -0.0861   -1.5420   -0.0357 O   0  0  0  0  0  0  0  0  0  0  0  0
    2.0849   -2.1651   -0.1306 O   0  0  0  0  0  0  0  0  0  0  0  0
    2.9272    0.5210    0.1122 O   0  0  0  0  0  0  0  0  0  0  0  0
    0.8942    2.4875   -0.3937 O   0  0  0  0  0  0  0  0  0  0  0  0
   -1.6921    1.6594    0.5493 O   0  0  0  0  0  0  0  0  0  0  0  0
   -3.4123   -0.2529   -0.3813 O   0  0  0  0  0  0  0  0  0  0  0  0
   -2.7580   -1.9826    0.5337 H   0  0  0  0  0  0  0  0  0  0  0  0
   -2.1957   -1.6613   -1.1208 H   0  0  0  0  0  0  0  0  0  0  0  0
    1.7247   -3.0448    0.0616 H   0  0  0  0  0  0  0  0  0  0  0  0
    3.5382   -0.2020   -0.0973 H   0  0  0  0  0  0  0  0  0  0  0  0
    1.0833    2.4013   -1.3392 H   0  0  0  0  0  0  0  0  0  0  0  0
   -1.4345    2.5734    0.3522 H   0  0  0  0  0  0  0  0  0  0  0  0
   -3.4749    0.3458    0.3783 H   0  0  0  0  0  0  0  0  0  0  0  0
  1  2  1  0  0  0  0
  2  3  1  0  0  0  0
  2  4  1  0  0  0  0
  4  5  1  0  0  0  0
  4  6  1  0  0  0  0
  6  7  1  0  0  0  0
  6  8  1  0  0  0  0
  8  9  1  0  0  0  0
  8 10  1  0  0  0  0
 10 11  1  0  0  0  0
  2 12  1  0  0  0  0
 10 12  1  0  0  0  0
 10 13  1  0  0  0  0
  8 14  1  0  0  0  0
  6 15  1  0  0  0  0
  4 16  1  0  0  0  0
  1 17  1  0  0  0  0
  1 18  1  0  0  0  0
  1 19  1  0  0  0  0
 13 20  1  0  0  0  0
 14 21  1  0  0  0  0
 15 22  1  0  0  0  0
 16 23  1  0  0  0  0
 17 24  1  0  0  0  0
M  END
