15
 xtb: 6.7.1 (edcfbbe)
C           -1.73963652187009       -0.81249544634574        0.00361876783878
C           -0.49250908997102        0.00376193426464       -0.33747091531185
C           -0.64682901763307        1.45570804088525        0.11121086881959
C            0.72634060643685       -0.65520162435873        0.30225404569109
O            1.96732875319241        0.00038599499416       -0.01865173731420
H           -1.65464388167840       -1.84526306804511       -0.35173306395263
H           -2.63083139439985       -0.37023192104941       -0.45303452786372
H           -1.89797493084286       -0.83932656889704        1.08871254743583
H           -0.34704620578950       -0.01839754742750       -1.42794258490631
H            0.23356279571797        2.05320937514264       -0.14286221201513
H           -0.78990504111924        1.50655737021542        1.19750581770140
H           -1.51656775129788        1.91999803379679       -0.36478350150159
H            0.64118351374711       -0.61241239661790        1.39490933588973
H            0.77567259621105       -1.71379839293878        0.00735404931527
H            2.07178338619598       -0.04423650486958       -0.97792275463786
