 xtb: 6.7.1 (edcfbbe)
          04032522133D

 12 11  0     0  0            999 V2000
    1.7413   -0.3153   -0.2213 C   0  0  0  0  0  0  0  0  0  0  0  0
    0.5663    0.5853    0.1604 C   0  0  0  0  0  0  0  0  0  0  0  0
   -0.6782   -0.2140    0.3822 C   0  0  0  0  0  0  0  0  0  0  0  0
   -1.8071   -0.0476   -0.2808 C   0  0  0  0  0  0  0  0  0  0  0  0
    1.9300   -1.0470    0.5610 H   0  0  0  0  0  0  0  0  0  0  0  0
    2.6414    0.2768   -0.3658 H   0  0  0  0  0  0  0  0  0  0  0  0
    1.5241   -0.8477   -1.1445 H   0  0  0  0  0  0  0  0  0  0  0  0
    0.3961    1.3243   -0.6245 H   0  0  0  0  0  0  0  0  0  0  0  0
    0.8139    1.1185    1.0827 H   0  0  0  0  0  0  0  0  0  0  0  0
   -0.6019   -0.9815    1.1420 H   0  0  0  0  0  0  0  0  0  0  0  0
   -2.6781   -0.6509   -0.0894 H   0  0  0  0  0  0  0  0  0  0  0  0
   -1.9087    0.7070   -1.0438 H   0  0  0  0  0  0  0  0  0  0  0  0
  1  2  1  0  0  0  0
  2  3  1  0  0  0  0
  3  4  2  0  0  0  0
  1  5  1  0  0  0  0
  1  6  1  0  0  0  0
  1  7  1  0  0  0  0
  2  8  1  0  0  0  0
  2  9  1  0  0  0  0
  3 10  1  0  0  0  0
  4 11  1  0  0  0  0
  4 12  1  0  0  0  0
M  END
