9
 xtb: 6.7.1 (edcfbbe)
C            0.25543131973903       -0.53583752878779        0.00064738895733
C            1.39224941283924        0.15200628846232       -0.00091741219928
F            2.58292815709238       -0.39355079729462       -0.00102725832194
F            1.43185347316451        1.46583585418685       -0.00298881438428
C           -1.10108198022604        0.11063783813910        0.00025519620724
F           -1.29520160021574        0.88832679442520        1.09184108093977
F           -1.28165650990366        0.91235890613880       -1.07588921688642
F           -2.05988455525348       -0.82855754505406       -0.01578980280837
F            0.27947614797374       -1.87686833552471        0.00381403827139
