 xtb: 6.7.1 (edcfbbe)
          04062518003D

 24 24  0     0  0            999 V2000
   -2.3027   -0.9451    0.7016 C   0  0  0  0  0  0  0  0  0  0  0  0
   -0.8656   -0.3919    0.7907 C   0  0  0  0  0  0  0  0  0  0  0  0
   -0.7274   -0.0071    1.8116 H   0  0  0  0  0  0  0  0  0  0  0  0
   -0.6239    0.7541   -0.1926 C   0  0  0  0  0  0  0  0  0  0  0  0
   -0.7245    0.3636   -1.2169 H   0  0  0  0  0  0  0  0  0  0  0  0
    0.8055    1.2999   -0.0224 C   0  0  0  0  0  0  0  0  0  0  0  0
    0.8260    1.9783    0.8389 H   0  0  0  0  0  0  0  0  0  0  0  0
    1.8204    0.1604    0.2470 C   0  0  0  0  0  0  0  0  0  0  0  0
    2.7122    0.3452   -0.3604 H   0  0  0  0  0  0  0  0  0  0  0  0
    1.2147   -1.1909   -0.1569 C   0  0  0  0  0  0  0  0  0  0  0  0
    1.9067   -1.9998    0.1235 H   0  0  0  0  0  0  0  0  0  0  0  0
    0.0499   -1.4702    0.5801 O   0  0  0  0  0  0  0  0  0  0  0  0
    0.9989   -1.1750   -1.5333 O   0  0  0  0  0  0  0  0  0  0  0  0
    2.2646    0.1291    1.5782 O   0  0  0  0  0  0  0  0  0  0  0  0
    1.1675    2.0873   -1.1296 O   0  0  0  0  0  0  0  0  0  0  0  0
   -1.5946    1.7458    0.0459 O   0  0  0  0  0  0  0  0  0  0  0  0
   -2.7885   -1.0791   -0.6084 O   0  0  0  0  0  0  0  0  0  0  0  0
   -2.9546   -0.2972    1.2948 H   0  0  0  0  0  0  0  0  0  0  0  0
   -2.2949   -1.9488    1.1316 H   0  0  0  0  0  0  0  0  0  0  0  0
    0.6675   -2.0371   -1.8285 H   0  0  0  0  0  0  0  0  0  0  0  0
    1.6043   -0.3041    2.1383 H   0  0  0  0  0  0  0  0  0  0  0  0
    1.2297    1.5236   -1.9154 H   0  0  0  0  0  0  0  0  0  0  0  0
   -1.3395    2.5480   -0.4338 H   0  0  0  0  0  0  0  0  0  0  0  0
   -3.0340   -0.2040   -0.9402 H   0  0  0  0  0  0  0  0  0  0  0  0
  1  2  1  0  0  0  0
  2  3  1  0  0  0  0
  2  4  1  0  0  0  0
  4  5  1  0  0  0  0
  4  6  1  0  0  0  0
  6  7  1  0  0  0  0
  6  8  1  0  0  0  0
  8  9  1  0  0  0  0
  8 10  1  0  0  0  0
 10 11  1  0  0  0  0
  2 12  1  0  0  0  0
 10 12  1  0  0  0  0
 10 13  1  0  0  0  0
  8 14  1  0  0  0  0
  6 15  1  0  0  0  0
  4 16  1  0  0  0  0
  1 17  1  0  0  0  0
  1 18  1  0  0  0  0
  1 19  1  0  0  0  0
 13 20  1  0  0  0  0
 14 21  1  0  0  0  0
 15 22  1  0  0  0  0
 16 23  1  0  0  0  0
 17 24  1  0  0  0  0
M  END
