12
 xtb: 6.7.1 (edcfbbe)
C           -2.50457141032508        0.03731142479854        0.02050071889187
C           -1.08256449785143       -0.51606935634667       -0.04061364699116
C           -0.05769371244635        0.60621237170321        0.05327276985324
S            1.65219188603990       -0.10730708323781       -0.02497639330056
H           -2.67589261385982        0.57606448348344        0.95860580210130
H           -2.69223014472033        0.73063271599255       -0.80642516828913
H           -3.24051016522164       -0.77010902969609       -0.04346427189274
H           -0.93902961874105       -1.06850901228090       -0.97701828382083
H           -0.92576495636899       -1.22688866615332        0.77967904658964
H           -0.18141096728692        1.30969674590121       -0.77519105323916
H           -0.16814720524120        1.14843095220332        0.99681332405774
H            2.32147956218547        1.05566854244608        0.08205456358269
