 xtb: 6.7.1 (edcfbbe)
          04042523483D

 16 15  0     0  0            999 V2000
    1.1719    1.4513   -0.3176 C   0  0  0  0  0  0  0  0  0  0  0  0
    0.7117   -0.0034   -0.4355 C   0  0  0  0  0  0  0  0  0  0  0  0
    1.5874   -0.9175    0.4260 C   0  0  0  0  0  0  0  0  0  0  0  0
   -0.7254   -0.1110    0.0488 C   0  0  0  0  0  0  0  0  0  0  0  0
   -1.0492    0.2265    1.1702 O   0  0  0  0  0  0  0  0  0  0  0  0
   -1.7031   -0.6618   -0.9442 C   0  0  0  0  0  0  0  0  0  0  0  0
    1.0488    1.7944    0.7073 H   0  0  0  0  0  0  0  0  0  0  0  0
    2.2188    1.5370   -0.5949 H   0  0  0  0  0  0  0  0  0  0  0  0
    0.5831    2.0934   -0.9686 H   0  0  0  0  0  0  0  0  0  0  0  0
    0.7708   -0.3219   -1.4787 H   0  0  0  0  0  0  0  0  0  0  0  0
    1.4887   -0.6418    1.4738 H   0  0  0  0  0  0  0  0  0  0  0  0
    2.6292   -0.8211    0.1330 H   0  0  0  0  0  0  0  0  0  0  0  0
    1.2861   -1.9565    0.3129 H   0  0  0  0  0  0  0  0  0  0  0  0
   -1.3764   -1.6504   -1.2583 H   0  0  0  0  0  0  0  0  0  0  0  0
   -1.7178   -0.0204   -1.8224 H   0  0  0  0  0  0  0  0  0  0  0  0
   -2.6980   -0.7192   -0.5114 H   0  0  0  0  0  0  0  0  0  0  0  0
  1  2  1  0  0  0  0
  2  3  1  0  0  0  0
  2  4  1  0  0  0  0
  4  5  2  0  0  0  0
  4  6  1  0  0  0  0
  1  7  1  0  0  0  0
  1  8  1  0  0  0  0
  1  9  1  0  0  0  0
  2 10  1  0  0  0  0
  3 11  1  0  0  0  0
  3 12  1  0  0  0  0
  3 13  1  0  0  0  0
  6 14  1  0  0  0  0
  6 15  1  0  0  0  0
  6 16  1  0  0  0  0
M  END
