 xtb: 6.7.1 (edcfbbe)
          04032521483D

 11 10  0     0  0            999 V2000
   -2.8218   -0.2621   -0.4014 C   0  0  0  0  0  0  0  0  0  0  0  0
   -1.3980   -0.4861   -0.4348 O   0  0  0  0  0  0  0  0  0  0  0  0
   -0.6140    0.3396    0.1796 C   0  0  0  0  0  0  0  0  0  0  0  0
   -0.8938    1.3230    0.8124 O   0  0  0  0  0  0  0  0  0  0  0  0
    0.8748   -0.0941    0.0071 C   0  0  0  0  0  0  0  0  0  0  0  0
    1.5881    0.8716   -0.5870 F   0  0  0  0  0  0  0  0  0  0  0  0
    1.4451   -0.3306    1.1958 F   0  0  0  0  0  0  0  0  0  0  0  0
    1.0182   -1.1999   -0.7271 F   0  0  0  0  0  0  0  0  0  0  0  0
   -3.2689   -1.1164    0.1024 H   0  0  0  0  0  0  0  0  0  0  0  0
   -3.1558   -0.2155   -1.4354 H   0  0  0  0  0  0  0  0  0  0  0  0
   -3.0438    0.6636    0.1273 H   0  0  0  0  0  0  0  0  0  0  0  0
  1  2  1  0  0  0  0
  2  3  4  0  0  0  0
  3  4  2  0  0  0  0
  3  5  1  0  0  0  0
  5  6  1  0  0  0  0
  5  7  1  0  0  0  0
  5  8  1  0  0  0  0
  1  9  1  0  0  0  0
  1 10  1  0  0  0  0
  1 11  1  0  0  0  0
M  END
