14
 xtb: 6.7.1 (edcfbbe)
C           -2.56559612877374       -0.00000428135569       -0.00031926176239
C           -1.87330134948600       -1.21017857122845        0.00007061820933
C           -0.48518646696468       -1.22094416839008        0.00061130657577
C            0.18315692727118        0.00001091100575        0.00077815478767
C           -0.48519697606256        1.22096154154022        0.00041673244465
C           -1.87331534974406        1.21017870423530       -0.00013131391532
N            1.64739888734606       -0.00001968673619        0.00012081221458
O            2.23197370615223       -1.08275547362091       -0.00093746463895
O            2.23202557010596        1.08273672488304       -0.00085225473363
H           -3.65049559102890       -0.00001148434774       -0.00086209572821
H           -2.41561700136382       -2.14921145871101       -0.00019412595923
H            0.06829486682932       -2.15120980447353        0.00074026074987
H            0.06828280273895        2.15123693319804        0.00038827425655
H           -2.41564366374738        2.14920562839901       -0.00055686731458
