29
 xtb: 6.7.1 (edcfbbe)
C           -3.71096551659455       -0.15484902798366        0.30536508030989
C           -2.28002230749324       -0.11499700398675       -0.21767408479573
H           -2.30316198843541        0.06543514479966       -1.30206224614923
C           -1.53640141998331       -1.42568872032647        0.03570542412259
C           -0.08370924800486       -1.37674277182916       -0.43477147190954
C            0.70341232757708       -0.21465457390060        0.22939437196808
H            0.63579047103328       -0.37112589283169        1.31711787098256
C           -0.08639789043888        1.03789604815085       -0.09005869066127
O            0.33925899274591        1.93205034556708       -0.81730747304618
C           -1.49526602681805        1.05103777599374        0.43113471604122
C            2.18292687387918       -0.12513502064135       -0.17074843194954
C            2.90864299748379        0.89167601326771        0.71618178011969
C            2.89076226060177       -1.47839127913416       -0.07576147695315
H           -3.71974537114584       -0.33319601936805        1.38699303612020
H           -4.23081103493762        0.78945126232147        0.11299333195466
H           -4.27818614341823       -0.95850179238624       -0.17632245256677
H           -1.56077011746145       -1.64299324964218        1.11305010968516
H           -2.05894766604873       -2.24669786087423       -0.46941239254126
H            0.41121044669104       -2.32093590475129       -0.19298894747497
H           -0.04218395891080       -1.25494899978735       -1.52581405285143
H           -1.48323910583406        0.89581145227796        1.51786737422118
H           -1.96532716346587        2.01280640161012        0.20754775469603
H            2.23188578370548        0.21739877875845       -1.21274764085201
H            3.95018114929808        1.00909490582699        0.39902545969900
H            2.91304958819096        0.54734305075191        1.75765790841240
H            2.43500575951219        1.87696547925657        0.68813082689829
H            3.96462788883365       -1.35117014139444       -0.24892526632712
H            2.52174152822661       -2.19647630193614       -0.81316578903001
H            2.76356595648059       -1.91681465969912        0.92179822642819
