12
 xtb: 6.7.1 (edcfbbe)
C           -1.89768333180113       -0.66349284195628        0.17508820312204
C           -0.94578292738193        0.46112834267812       -0.19871813543999
C            0.51516520904627        0.10119965423481       -0.01962997651978
O            0.88756294511811       -1.01035891142968        0.39042603476722
N            1.39279175267481        1.07275833019905       -0.33535001955438
H           -1.78124287611746       -0.94970797687531        1.22408844634486
H           -2.93208492202173       -0.34314638279987        0.02333638105168
H           -1.72366844027003       -1.55119265901891       -0.43940061492037
H           -1.14632773043639        1.35684444772832        0.40196005932596
H           -1.09018950373322        0.76224649519026       -1.24367980014288
H            1.07611830972002        1.96974140893551       -0.66848721148832
H            2.38310722997159        0.90442835878191       -0.24148279794261
