24
 xtb: 6.7.1 (edcfbbe)
C           -3.57193697996318        0.40295660655921       -0.24105047493804
O           -2.17621727289676        0.52699239551139       -0.61632490884237
C           -1.31852082577933       -0.29296036469879        0.02587761378668
O           -1.68266253308723       -1.11108657178112        0.85528091580925
C            0.10767214552765       -0.03182908099801       -0.37266731017670
C            0.96503238737645       -1.29670556235730       -0.27705301520885
C            2.41662508546604       -0.99201983143335       -0.64957947689843
C            2.99229565099994        0.11355385447665        0.23702526160757
C            2.13247008706450        1.37623559124788        0.16683091563773
C            0.67783597737643        1.08149378829572        0.53521435476887
H           -3.69831353496529        0.62033963335752        0.82254372196790
H           -3.93442588364387       -0.60344562726038       -0.46432875725386
H           -4.10016618380153        1.13979302204966       -0.84519067668364
H            0.10855659475677        0.33928722102316       -1.40466218987813
H            0.92347932967069       -1.67778137683722        0.75079491861656
H            0.55378286484311       -2.07467200719483       -0.93034204369375
H            3.01867355624778       -1.90333511812485       -0.56160085703840
H            2.46331141634468       -0.67686787722578       -1.70098906950190
H            3.02744705521339       -0.24082658420089        1.27641757003866
H            4.02228106020748        0.34135042763777       -0.06017949876847
H            2.52937811180484        2.14769716176397        0.83645490539592
H            2.16809914034923        1.78460526158641       -0.85226128499204
H            0.62021129153887        0.74597784755161        1.57938494918696
H            0.06712475393200        1.98618165838472        0.44354293797985
