 xtb: 6.7.1 (edcfbbe)
          04062505213D

 29 29  0     0  0            999 V2000
   -3.0497    0.0800    0.3071 C   0  0  0  0  0  0  0  0  0  0  0  0
   -1.9988   -0.2517   -0.7510 C   0  0  0  0  0  0  0  0  0  0  0  0
   -2.5176   -0.4103   -1.7024 H   0  0  0  0  0  0  0  0  0  0  0  0
   -1.2080   -1.5174   -0.4142 C   0  0  0  0  0  0  0  0  0  0  0  0
   -0.3089   -1.3273    0.8025 C   0  0  0  0  0  0  0  0  0  0  0  0
    0.6649   -0.1482    0.6383 C   0  0  0  0  0  0  0  0  0  0  0  0
    1.1506    0.0491    1.6016 H   0  0  0  0  0  0  0  0  0  0  0  0
   -0.1525    1.0730    0.2863 C   0  0  0  0  0  0  0  0  0  0  0  0
   -0.1299    2.0866    0.9603 O   0  0  0  0  0  0  0  0  0  0  0  0
   -1.0291    0.9294   -0.9263 C   0  0  0  0  0  0  0  0  0  0  0  0
    1.7795   -0.3900   -0.4035 C   0  0  0  0  0  0  0  0  0  0  0  0
    2.5923    0.8902   -0.5986 C   0  0  0  0  0  0  0  0  0  0  0  0
    2.7084   -1.5212    0.0324 C   0  0  0  0  0  0  0  0  0  0  0  0
   -3.6902   -0.7790    0.4912 H   0  0  0  0  0  0  0  0  0  0  0  0
   -2.5833    0.3763    1.2441 H   0  0  0  0  0  0  0  0  0  0  0  0
   -3.6722    0.9064   -0.0282 H   0  0  0  0  0  0  0  0  0  0  0  0
   -1.9037   -2.3350   -0.2182 H   0  0  0  0  0  0  0  0  0  0  0  0
   -0.6031   -1.8011   -1.2766 H   0  0  0  0  0  0  0  0  0  0  0  0
   -0.9255   -1.1392    1.6835 H   0  0  0  0  0  0  0  0  0  0  0  0
    0.2543   -2.2402    0.9933 H   0  0  0  0  0  0  0  0  0  0  0  0
   -1.5803    1.8586   -1.0814 H   0  0  0  0  0  0  0  0  0  0  0  0
   -0.3943    0.7477   -1.7943 H   0  0  0  0  0  0  0  0  0  0  0  0
    1.3260   -0.6634   -1.3598 H   0  0  0  0  0  0  0  0  0  0  0  0
    1.9639    1.7098   -0.9423 H   0  0  0  0  0  0  0  0  0  0  0  0
    3.3808    0.7313   -1.3302 H   0  0  0  0  0  0  0  0  0  0  0  0
    3.0500    1.1935    0.3409 H   0  0  0  0  0  0  0  0  0  0  0  0
    3.5281   -1.6156   -0.6755 H   0  0  0  0  0  0  0  0  0  0  0  0
    2.1873   -2.4730    0.0710 H   0  0  0  0  0  0  0  0  0  0  0  0
    3.1270   -1.3124    1.0143 H   0  0  0  0  0  0  0  0  0  0  0  0
  1  2  1  0  0  0  0
  2  3  1  0  0  0  0
  2  4  1  0  0  0  0
  4  5  1  0  0  0  0
  5  6  1  0  0  0  0
  6  7  1  0  0  0  0
  6  8  1  0  0  0  0
  8  9  2  0  0  0  0
  2 10  1  0  0  0  0
  8 10  1  0  0  0  0
  6 11  1  0  0  0  0
 11 12  1  0  0  0  0
 11 13  1  0  0  0  0
  1 14  1  0  0  0  0
  1 15  1  0  0  0  0
  1 16  1  0  0  0  0
  4 17  1  0  0  0  0
  4 18  1  0  0  0  0
  5 19  1  0  0  0  0
  5 20  1  0  0  0  0
 10 21  1  0  0  0  0
 10 22  1  0  0  0  0
 11 23  1  0  0  0  0
 12 24  1  0  0  0  0
 12 25  1  0  0  0  0
 12 26  1  0  0  0  0
 13 27  1  0  0  0  0
 13 28  1  0  0  0  0
 13 29  1  0  0  0  0
M  END
