6
 xtb: 6.7.1 (edcfbbe)
C           -0.48314477629071        0.45310183551359        0.00083856140999
C            0.48311438033755       -0.45308071869291        0.00040003028022
Cl           2.15648800451020        0.04785491133456       -0.00059473017236
Cl          -2.15650215128110       -0.04784324802246       -0.00069736863018
H           -0.33580248225626        1.52686480851503       -0.00016030384740
H            0.33577835811990       -1.52684889509589       -0.00064701736561
