 xtb: 6.7.1 (edcfbbe)
          04052503093D

 19 19  0     0  0            999 V2000
   -3.8063   -0.7188    0.0011 C   0  0  0  0  0  0  0  0  0  0  0  0
   -2.3821   -0.8091    0.0009 O   0  0  0  0  0  0  0  0  0  0  0  0
   -1.7016    0.3408   -0.0003 C   0  0  0  0  0  0  0  0  0  0  0  0
   -2.2582    1.4268   -0.0015 O   0  0  0  0  0  0  0  0  0  0  0  0
   -0.2448    0.1536   -0.0004 C   0  0  0  0  0  0  0  0  0  0  0  0
    0.5772    1.2810    0.0005 C   0  0  0  0  0  0  0  0  0  0  0  0
    1.9484    1.1492    0.0008 C   0  0  0  0  0  0  0  0  0  0  0  0
    2.5260   -0.1208    0.0001 C   0  0  0  0  0  0  0  0  0  0  0  0
    1.7050   -1.2519   -0.0009 C   0  0  0  0  0  0  0  0  0  0  0  0
    0.3360   -1.1169   -0.0011 C   0  0  0  0  0  0  0  0  0  0  0  0
    3.8587   -0.3100    0.0005 O   0  0  0  0  0  0  0  0  0  0  0  0
   -4.1637   -1.7435   -0.0135 H   0  0  0  0  0  0  0  0  0  0  0  0
   -4.1468   -0.1709   -0.8788 H   0  0  0  0  0  0  0  0  0  0  0  0
   -4.1478   -0.1965    0.8960 H   0  0  0  0  0  0  0  0  0  0  0  0
    0.1132    2.2557    0.0010 H   0  0  0  0  0  0  0  0  0  0  0  0
    2.5737    2.0292    0.0016 H   0  0  0  0  0  0  0  0  0  0  0  0
    2.1711   -2.2239   -0.0015 H   0  0  0  0  0  0  0  0  0  0  0  0
   -0.2980   -1.9886   -0.0019 H   0  0  0  0  0  0  0  0  0  0  0  0
    4.3377    0.5343    0.0013 H   0  0  0  0  0  0  0  0  0  0  0  0
  1  2  1  0  0  0  0
  2  3  1  0  0  0  0
  3  4  2  0  0  0  0
  3  5  1  0  0  0  0
  5  6  4  0  0  0  0
  6  7  4  0  0  0  0
  7  8  4  0  0  0  0
  8  9  4  0  0  0  0
  5 10  4  0  0  0  0
  9 10  4  0  0  0  0
  8 11  1  0  0  0  0
  1 12  1  0  0  0  0
  1 13  1  0  0  0  0
  1 14  1  0  0  0  0
  6 15  1  0  0  0  0
  7 16  1  0  0  0  0
  9 17  1  0  0  0  0
 10 18  1  0  0  0  0
 11 19  1  0  0  0  0
M  END
