 xtb: 6.7.1 (edcfbbe)
          04042513273D

 12 11  0     0  0            999 V2000
   -1.9502    0.4922    0.0923 C   0  0  0  0  0  0  0  0  0  0  0  0
   -0.9003   -0.5798   -0.1685 C   0  0  0  0  0  0  0  0  0  0  0  0
    0.5511   -0.1583   -0.0472 C   0  0  0  0  0  0  0  0  0  0  0  0
    1.4579   -0.9721   -0.2250 O   0  0  0  0  0  0  0  0  0  0  0  0
    0.8041    1.1181    0.2557 N   0  0  0  0  0  0  0  0  0  0  0  0
   -1.8638    1.3084   -0.6206 H   0  0  0  0  0  0  0  0  0  0  0  0
   -2.9391    0.0552   -0.0213 H   0  0  0  0  0  0  0  0  0  0  0  0
   -1.8721    0.8793    1.1052 H   0  0  0  0  0  0  0  0  0  0  0  0
   -1.0172   -0.9876   -1.1755 H   0  0  0  0  0  0  0  0  0  0  0  0
   -1.0343   -1.4176    0.5200 H   0  0  0  0  0  0  0  0  0  0  0  0
    0.0655    1.7833    0.4016 H   0  0  0  0  0  0  0  0  0  0  0  0
    1.7631    1.4137    0.3389 H   0  0  0  0  0  0  0  0  0  0  0  0
  1  2  1  0  0  0  0
  2  3  1  0  0  0  0
  3  4  2  0  0  0  0
  3  5  4  0  0  0  0
  1  6  1  0  0  0  0
  1  7  1  0  0  0  0
  1  8  1  0  0  0  0
  2  9  1  0  0  0  0
  2 10  1  0  0  0  0
  5 11  1  0  0  0  0
  5 12  1  0  0  0  0
M  END
