13
 xtb: 6.7.1 (edcfbbe)
C            0.40345124169338       -1.28066601246532       -0.00017083291475
C            1.76148534631064       -0.98595008082983       -0.00019784225180
N            2.24348474549219        0.26403936429281       -0.00021157707165
C            1.35493017301238        1.27247189864539       -0.00004504105615
C           -0.01802352792439        1.08434734751840       -0.00007329128577
C           -0.50558707731664       -0.22388319907713       -0.00026698128467
C           -1.95254581081512       -0.51325584637942       -0.00009125962893
O           -2.81877668377422        0.34719986205189       -0.00025404290026
H            0.05926066902715       -2.31048203065068        0.00001312717022
H            2.49482898530468       -1.78861692884072       -0.00018344660289
H            1.76796190555810        2.27812062417925       -0.00016917865601
H           -0.69684244004344        1.93021600788859       -0.00004182661185
H           -2.21846214948271       -1.58789709425406        0.00032689670262
