 xtb: 6.7.1 (edcfbbe)
          04062508313D

 24 24  0     0  0            999 V2000
   -2.8796   -1.2278   -0.0489 C   0  0  0  0  0  0  0  0  0  0  0  0
   -1.7208   -0.5940   -0.5967 O   0  0  0  0  0  0  0  0  0  0  0  0
   -1.0581    0.2827    0.1476 C   0  0  0  0  0  0  0  0  0  0  0  0
   -1.3889    0.5802    1.2774 O   0  0  0  0  0  0  0  0  0  0  0  0
    0.1009    0.9014   -0.6125 C   0  0  0  0  0  0  0  0  0  0  0  0
    0.8322   -0.1373   -1.4676 C   0  0  0  0  0  0  0  0  0  0  0  0
    1.4286   -1.2491   -0.5960 C   0  0  0  0  0  0  0  0  0  0  0  0
    1.8395   -0.7196    0.7831 C   0  0  0  0  0  0  0  0  0  0  0  0
    2.2788    0.7363    0.6779 C   0  0  0  0  0  0  0  0  0  0  0  0
    1.0737    1.6186    0.3360 C   0  0  0  0  0  0  0  0  0  0  0  0
   -2.6173   -2.2430    0.2477 H   0  0  0  0  0  0  0  0  0  0  0  0
   -3.6290   -1.2451   -0.8364 H   0  0  0  0  0  0  0  0  0  0  0  0
   -3.2356   -0.6687    0.8173 H   0  0  0  0  0  0  0  0  0  0  0  0
   -0.3699    1.6355   -1.2763 H   0  0  0  0  0  0  0  0  0  0  0  0
    0.1496   -0.5640   -2.2017 H   0  0  0  0  0  0  0  0  0  0  0  0
    1.6258    0.3805   -2.0064 H   0  0  0  0  0  0  0  0  0  0  0  0
    0.7032   -2.0550   -0.4730 H   0  0  0  0  0  0  0  0  0  0  0  0
    2.2984   -1.6670   -1.1050 H   0  0  0  0  0  0  0  0  0  0  0  0
    0.9965   -0.7776    1.4762 H   0  0  0  0  0  0  0  0  0  0  0  0
    2.6430   -1.3330    1.1929 H   0  0  0  0  0  0  0  0  0  0  0  0
    2.7165    1.0693    1.6195 H   0  0  0  0  0  0  0  0  0  0  0  0
    3.0447    0.8237   -0.0942 H   0  0  0  0  0  0  0  0  0  0  0  0
    0.5309    1.8686    1.2502 H   0  0  0  0  0  0  0  0  0  0  0  0
    1.4156    2.5496   -0.1155 H   0  0  0  0  0  0  0  0  0  0  0  0
  1  2  1  0  0  0  0
  2  3  1  0  0  0  0
  3  4  2  0  0  0  0
  3  5  1  0  0  0  0
  5  6  1  0  0  0  0
  6  7  1  0  0  0  0
  7  8  1  0  0  0  0
  8  9  1  0  0  0  0
  5 10  1  0  0  0  0
  9 10  1  0  0  0  0
  1 11  1  0  0  0  0
  1 12  1  0  0  0  0
  1 13  1  0  0  0  0
  5 14  1  0  0  0  0
  6 15  1  0  0  0  0
  6 16  1  0  0  0  0
  7 17  1  0  0  0  0
  7 18  1  0  0  0  0
  8 19  1  0  0  0  0
  8 20  1  0  0  0  0
  9 21  1  0  0  0  0
  9 22  1  0  0  0  0
 10 23  1  0  0  0  0
 10 24  1  0  0  0  0
M  END
