 xtb: 6.7.1 (edcfbbe)
          04062518003D

 24 24  0     0  0            999 V2000
   -2.4478   -0.8573   -0.2521 C   0  0  0  0  0  0  0  0  0  0  0  0
   -1.1168   -0.6148    0.4904 C   0  0  0  0  0  0  0  0  0  0  0  0
   -1.1786   -1.0356    1.5059 H   0  0  0  0  0  0  0  0  0  0  0  0
   -0.7582    0.8851    0.6046 C   0  0  0  0  0  0  0  0  0  0  0  0
   -1.6424    1.4828    0.3579 H   0  0  0  0  0  0  0  0  0  0  0  0
    0.3489    1.2031   -0.4269 C   0  0  0  0  0  0  0  0  0  0  0  0
    0.5838    2.2713   -0.3834 H   0  0  0  0  0  0  0  0  0  0  0  0
    1.6140    0.4018   -0.0655 C   0  0  0  0  0  0  0  0  0  0  0  0
    2.2834    0.3698   -0.9324 H   0  0  0  0  0  0  0  0  0  0  0  0
    1.1993   -1.0562    0.2601 C   0  0  0  0  0  0  0  0  0  0  0  0
    1.2142   -1.1921    1.3602 H   0  0  0  0  0  0  0  0  0  0  0  0
   -0.1074   -1.3298   -0.2153 O   0  0  0  0  0  0  0  0  0  0  0  0
    2.0700   -1.9181   -0.3721 O   0  0  0  0  0  0  0  0  0  0  0  0
    2.3486    0.9904    0.9687 O   0  0  0  0  0  0  0  0  0  0  0  0
   -0.0863    0.9351   -1.7372 O   0  0  0  0  0  0  0  0  0  0  0  0
   -0.2665    1.2110    1.8859 O   0  0  0  0  0  0  0  0  0  0  0  0
   -2.8411    0.1837   -1.1075 O   0  0  0  0  0  0  0  0  0  0  0  0
   -3.2582   -0.9554    0.4719 H   0  0  0  0  0  0  0  0  0  0  0  0
   -2.3452   -1.8011   -0.8022 H   0  0  0  0  0  0  0  0  0  0  0  0
    1.7829   -2.8366   -0.2461 H   0  0  0  0  0  0  0  0  0  0  0  0
    1.7428    1.1923    1.7029 H   0  0  0  0  0  0  0  0  0  0  0  0
    0.0301   -0.0149   -1.9044 H   0  0  0  0  0  0  0  0  0  0  0  0
   -0.9970    1.4243    2.4824 H   0  0  0  0  0  0  0  0  0  0  0  0
   -2.1196    0.4026   -1.7222 H   0  0  0  0  0  0  0  0  0  0  0  0
  1  2  1  0  0  0  0
  2  3  1  0  0  0  0
  2  4  1  0  0  0  0
  4  5  1  0  0  0  0
  4  6  1  0  0  0  0
  6  7  1  0  0  0  0
  6  8  1  0  0  0  0
  8  9  1  0  0  0  0
  8 10  1  0  0  0  0
 10 11  1  0  0  0  0
  2 12  1  0  0  0  0
 10 12  1  0  0  0  0
 10 13  1  0  0  0  0
  8 14  1  0  0  0  0
  6 15  1  0  0  0  0
  4 16  1  0  0  0  0
  1 17  1  0  0  0  0
  1 18  1  0  0  0  0
  1 19  1  0  0  0  0
 13 20  1  0  0  0  0
 14 21  1  0  0  0  0
 15 22  1  0  0  0  0
 16 23  1  0  0  0  0
 17 24  1  0  0  0  0
M  END
