 xtb: 6.7.1 (edcfbbe)
          04052509083D

 22 23  0     0  0            999 V2000
    1.2204    0.8854   -1.3688 C   0  0  0  0  0  0  0  0  0  0  0  0
    2.5921    0.9959   -1.5002 C   0  0  0  0  0  0  0  0  0  0  0  0
    3.4272    0.4289   -0.5498 C   0  0  0  0  0  0  0  0  0  0  0  0
    2.8821   -0.2517    0.5336 C   0  0  0  0  0  0  0  0  0  0  0  0
    1.5088   -0.3671    0.6636 C   0  0  0  0  0  0  0  0  0  0  0  0
    0.6718    0.2025   -0.2886 C   0  0  0  0  0  0  0  0  0  0  0  0
   -0.7949    0.0738   -0.1479 C   0  0  0  0  0  0  0  0  0  0  0  0
   -1.5919    1.2021    0.0485 C   0  0  0  0  0  0  0  0  0  0  0  0
   -2.9730    1.0776    0.1799 C   0  0  0  0  0  0  0  0  0  0  0  0
   -3.5731   -0.1697    0.1135 C   0  0  0  0  0  0  0  0  0  0  0  0
   -2.7895   -1.2957   -0.0822 C   0  0  0  0  0  0  0  0  0  0  0  0
   -1.4075   -1.1782   -0.2109 C   0  0  0  0  0  0  0  0  0  0  0  0
   -0.4476   -2.5851   -0.4806 Cl  0  0  0  0  0  0  0  0  0  0  0  0
   -3.5344   -2.8451   -0.1677 Cl  0  0  0  0  0  0  0  0  0  0  0  0
   -3.9447    2.4760    0.4297 Cl  0  0  0  0  0  0  0  0  0  0  0  0
   -0.8553    2.7554    0.1649 Cl  0  0  0  0  0  0  0  0  0  0  0  0
    3.9161   -0.9617    1.7287 Cl  0  0  0  0  0  0  0  0  0  0  0  0
    5.1447    0.5692   -0.7135 Cl  0  0  0  0  0  0  0  0  0  0  0  0
    0.5735    1.3209   -2.1127 H   0  0  0  0  0  0  0  0  0  0  0  0
    3.0236    1.5196   -2.3369 H   0  0  0  0  0  0  0  0  0  0  0  0
    1.0971   -0.8913    1.5104 H   0  0  0  0  0  0  0  0  0  0  0  0
   -4.6415   -0.2635    0.2139 H   0  0  0  0  0  0  0  0  0  0  0  0
  1  2  4  0  0  0  0
  2  3  4  0  0  0  0
  3  4  4  0  0  0  0
  4  5  4  0  0  0  0
  1  6  4  0  0  0  0
  5  6  4  0  0  0  0
  6  7  1  0  0  0  0
  7  8  4  0  0  0  0
  8  9  4  0  0  0  0
  9 10  4  0  0  0  0
 10 11  4  0  0  0  0
  7 12  4  0  0  0  0
 11 12  4  0  0  0  0
 12 13  1  0  0  0  0
 11 14  1  0  0  0  0
  9 15  1  0  0  0  0
  8 16  1  0  0  0  0
  4 17  1  0  0  0  0
  3 18  1  0  0  0  0
  1 19  1  0  0  0  0
  2 20  1  0  0  0  0
  5 21  1  0  0  0  0
 10 22  1  0  0  0  0
M  END
