24
 xtb: 6.7.1 (edcfbbe)
C            2.34593118540408       -0.71388883710290        0.12823813403612
C            0.86342944228099       -0.53012672807995        0.44569331821992
H            0.69238813422356       -0.88608595360734        1.47357006063362
C           -0.01204876600002       -1.38846456390963       -0.47619528516271
C           -1.49670565801766       -1.26392020360499       -0.12930772002032
C           -1.94709477107207        0.19796201933209       -0.14993309453729
C           -1.07133926819253        1.04847849383050        0.77386330881706
C            0.42354732847985        0.95140156127372        0.42568731616942
H            0.98488722807343        1.46638013381241        1.21868767783326
C            0.74544103478796        1.66519332696898       -0.89066748339870
H            2.56086110015732       -0.48732923618280       -0.92200150933406
H            2.97127048135374       -0.06119421509603        0.74851620057219
H            2.65562633075026       -1.74892612603647        0.31099622533357
H            0.14715600030343       -1.08455782744704       -1.52016400242898
H            0.30701755507832       -2.43617114426076       -0.40489247971076
H           -2.10112125061603       -1.86037004062890       -0.82320013301772
H           -1.66563396431626       -1.67547486257648        0.87609057682979
H           -1.89277576958138        0.58252405024344       -1.17710384064869
H           -2.99668476436022        0.27597423487262        0.15794272738871
H           -1.39027776323638        2.09788554992956        0.74126812426026
H           -1.21569694073607        0.70293251252473        1.80723083659825
H            0.35602421626142        2.68956333490817       -0.86913787909151
H            0.30382023996142        1.16308762362269       -1.75744410733864
H            1.82533109941648        1.72727283791097       -1.05864913167676
