 xtb: 6.7.1 (edcfbbe)
          04062505073D

 29 29  0     0  0            999 V2000
   -2.9841    0.0750    0.5516 C   0  0  0  0  0  0  0  0  0  0  0  0
   -2.0933   -0.0841   -0.6790 C   0  0  0  0  0  0  0  0  0  0  0  0
   -2.7279   -0.0093   -1.5687 H   0  0  0  0  0  0  0  0  0  0  0  0
   -1.3682   -1.4279   -0.7138 C   0  0  0  0  0  0  0  0  0  0  0  0
   -0.4126   -1.5856    0.4637 C   0  0  0  0  0  0  0  0  0  0  0  0
    0.5602   -0.4146    0.6788 C   0  0  0  0  0  0  0  0  0  0  0  0
    0.8061   -0.3819    1.7476 H   0  0  0  0  0  0  0  0  0  0  0  0
   -0.0222    0.9414    0.3534 C   0  0  0  0  0  0  0  0  0  0  0  0
    0.3623    1.9387    0.9411 O   0  0  0  0  0  0  0  0  0  0  0  0
   -1.0545    1.0380   -0.7356 C   0  0  0  0  0  0  0  0  0  0  0  0
    1.9337   -0.5982   -0.0312 C   0  0  0  0  0  0  0  0  0  0  0  0
    1.9246   -0.2864   -1.5248 C   0  0  0  0  0  0  0  0  0  0  0  0
    2.9971    0.2520    0.6625 C   0  0  0  0  0  0  0  0  0  0  0  0
   -3.5823    0.9793    0.4665 H   0  0  0  0  0  0  0  0  0  0  0  0
   -3.6573   -0.7732    0.6484 H   0  0  0  0  0  0  0  0  0  0  0  0
   -2.3873    0.1554    1.4572 H   0  0  0  0  0  0  0  0  0  0  0  0
   -2.0978   -2.2391   -0.6826 H   0  0  0  0  0  0  0  0  0  0  0  0
   -0.8267   -1.5124   -1.6565 H   0  0  0  0  0  0  0  0  0  0  0  0
   -1.0067   -1.7020    1.3717 H   0  0  0  0  0  0  0  0  0  0  0  0
    0.1637   -2.5043    0.3399 H   0  0  0  0  0  0  0  0  0  0  0  0
   -1.5286    2.0198   -0.6695 H   0  0  0  0  0  0  0  0  0  0  0  0
   -0.5246    0.9862   -1.6890 H   0  0  0  0  0  0  0  0  0  0  0  0
    2.2047   -1.6522    0.0956 H   0  0  0  0  0  0  0  0  0  0  0  0
    1.7755    0.7781   -1.6934 H   0  0  0  0  0  0  0  0  0  0  0  0
    1.1527   -0.8449   -2.0447 H   0  0  0  0  0  0  0  0  0  0  0  0
    2.8852   -0.5614   -1.9553 H   0  0  0  0  0  0  0  0  0  0  0  0
    3.1332   -0.0627    1.6947 H   0  0  0  0  0  0  0  0  0  0  0  0
    2.7046    1.3005    0.6643 H   0  0  0  0  0  0  0  0  0  0  0  0
    3.9497    0.1610    0.1466 H   0  0  0  0  0  0  0  0  0  0  0  0
  1  2  1  0  0  0  0
  2  3  1  0  0  0  0
  2  4  1  0  0  0  0
  4  5  1  0  0  0  0
  5  6  1  0  0  0  0
  6  7  1  0  0  0  0
  6  8  1  0  0  0  0
  8  9  2  0  0  0  0
  2 10  1  0  0  0  0
  8 10  1  0  0  0  0
  6 11  1  0  0  0  0
 11 12  1  0  0  0  0
 11 13  1  0  0  0  0
  1 14  1  0  0  0  0
  1 15  1  0  0  0  0
  1 16  1  0  0  0  0
  4 17  1  0  0  0  0
  4 18  1  0  0  0  0
  5 19  1  0  0  0  0
  5 20  1  0  0  0  0
 10 21  1  0  0  0  0
 10 22  1  0  0  0  0
 11 23  1  0  0  0  0
 12 24  1  0  0  0  0
 12 25  1  0  0  0  0
 12 26  1  0  0  0  0
 13 27  1  0  0  0  0
 13 28  1  0  0  0  0
 13 29  1  0  0  0  0
M  END
