5
 xtb: 6.7.1 (edcfbbe)
C           -0.00032957026245        0.00068178115845        0.54059218430049
Br           0.38581618311949       -1.81865576519832       -0.04331570667778
Br           1.38552910223064        1.24139016639873       -0.04332807570686
Br          -1.76932188780955        0.57648914791740       -0.04173666104195
H           -0.00148396722310        0.00030924364428        1.62742248696547
