 xtb: 6.7.1 (edcfbbe)
          04032522203D

 11 10  0     0  0            999 V2000
   -2.6362    0.0416   -0.3221 C   0  0  0  0  0  0  0  0  0  0  0  0
   -1.3810    0.5544    0.1403 O   0  0  0  0  0  0  0  0  0  0  0  0
   -0.4310   -0.3155    0.4213 C   0  0  0  0  0  0  0  0  0  0  0  0
   -0.5523   -1.5155    0.3294 O   0  0  0  0  0  0  0  0  0  0  0  0
    0.8457    0.3831    0.8423 C   0  0  0  0  0  0  0  0  0  0  0  0
    1.7785    0.6497   -0.6656 Cl  0  0  0  0  0  0  0  0  0  0  0  0
   -3.2773    0.9087   -0.4440 H   0  0  0  0  0  0  0  0  0  0  0  0
   -3.0454   -0.6528    0.4120 H   0  0  0  0  0  0  0  0  0  0  0  0
   -2.4984   -0.4810   -1.2689 H   0  0  0  0  0  0  0  0  0  0  0  0
    1.4443   -0.2528    1.4903 H   0  0  0  0  0  0  0  0  0  0  0  0
    0.6397    1.3577    1.2780 H   0  0  0  0  0  0  0  0  0  0  0  0
  1  2  1  0  0  0  0
  2  3  1  0  0  0  0
  3  4  2  0  0  0  0
  3  5  1  0  0  0  0
  5  6  1  0  0  0  0
  1  7  1  0  0  0  0
  1  8  1  0  0  0  0
  1  9  1  0  0  0  0
  5 10  1  0  0  0  0
  5 11  1  0  0  0  0
M  END
