 xtb: 6.7.1 (edcfbbe)
          04032521463D

 13 13  0     0  0            999 V2000
    0.0052    1.2492    0.1110 C   0  0  0  0  0  0  0  0  0  0  0  0
    1.2271    0.3341   -0.0870 C   0  0  0  0  0  0  0  0  0  0  0  0
    0.6562   -1.0472    0.0367 C   0  0  0  0  0  0  0  0  0  0  0  0
   -0.6649   -1.0417    0.0368 C   0  0  0  0  0  0  0  0  0  0  0  0
   -1.2243    0.3443   -0.0870 C   0  0  0  0  0  0  0  0  0  0  0  0
    0.0089    2.0897   -0.5800 H   0  0  0  0  0  0  0  0  0  0  0  0
    0.0069    1.6480    1.1257 H   0  0  0  0  0  0  0  0  0  0  0  0
    1.6714    0.4641   -1.0777 H   0  0  0  0  0  0  0  0  0  0  0  0
    2.0084    0.5218    0.6505 H   0  0  0  0  0  0  0  0  0  0  0  0
    1.2910   -1.9148    0.0923 H   0  0  0  0  0  0  0  0  0  0  0  0
   -1.3069   -1.9040    0.0923 H   0  0  0  0  0  0  0  0  0  0  0  0
   -1.6674    0.4779   -1.0778 H   0  0  0  0  0  0  0  0  0  0  0  0
   -2.0040    0.5385    0.6505 H   0  0  0  0  0  0  0  0  0  0  0  0
  1  2  1  0  0  0  0
  2  3  1  0  0  0  0
  3  4  2  0  0  0  0
  1  5  1  0  0  0  0
  4  5  1  0  0  0  0
  1  6  1  0  0  0  0
  1  7  1  0  0  0  0
  2  8  1  0  0  0  0
  2  9  1  0  0  0  0
  3 10  1  0  0  0  0
  4 11  1  0  0  0  0
  5 12  1  0  0  0  0
  5 13  1  0  0  0  0
M  END
