 xtb: 6.7.1 (edcfbbe)
          04042513183D

 12 11  0     0  0            999 V2000
   -1.9505    0.4890    0.1032 C   0  0  0  0  0  0  0  0  0  0  0  0
   -0.9000   -0.5768   -0.1797 C   0  0  0  0  0  0  0  0  0  0  0  0
    0.5509   -0.1620   -0.0304 C   0  0  0  0  0  0  0  0  0  0  0  0
    1.4563   -0.9860   -0.1628 O   0  0  0  0  0  0  0  0  0  0  0  0
    0.8047    1.1209    0.2428 N   0  0  0  0  0  0  0  0  0  0  0  0
   -1.8747    1.3139   -0.6008 H   0  0  0  0  0  0  0  0  0  0  0  0
   -2.9392    0.0504   -0.0060 H   0  0  0  0  0  0  0  0  0  0  0  0
   -1.8627    0.8646    1.1196 H   0  0  0  0  0  0  0  0  0  0  0  0
   -1.0075   -0.9523   -1.2003 H   0  0  0  0  0  0  0  0  0  0  0  0
   -1.0425   -1.4354    0.4806 H   0  0  0  0  0  0  0  0  0  0  0  0
    0.0669    1.7945    0.3480 H   0  0  0  0  0  0  0  0  0  0  0  0
    1.7631    1.4137    0.3412 H   0  0  0  0  0  0  0  0  0  0  0  0
  1  2  1  0  0  0  0
  2  3  1  0  0  0  0
  3  4  2  0  0  0  0
  3  5  4  0  0  0  0
  1  6  1  0  0  0  0
  1  7  1  0  0  0  0
  1  8  1  0  0  0  0
  2  9  1  0  0  0  0
  2 10  1  0  0  0  0
  5 11  1  0  0  0  0
  5 12  1  0  0  0  0
M  END
