 xtb: 6.7.1 (edcfbbe)
          04062518003D

 24 24  0     0  0            999 V2000
   -1.9188   -0.9702   -0.7523 C   0  0  0  0  0  0  0  0  0  0  0  0
   -1.2744   -0.1597    0.3859 C   0  0  0  0  0  0  0  0  0  0  0  0
   -2.0317    0.0266    1.1562 H   0  0  0  0  0  0  0  0  0  0  0  0
   -0.7520    1.2101   -0.1205 C   0  0  0  0  0  0  0  0  0  0  0  0
   -0.8663    1.2785   -1.2078 H   0  0  0  0  0  0  0  0  0  0  0  0
    0.7417    1.3450    0.1985 C   0  0  0  0  0  0  0  0  0  0  0  0
    0.8830    1.4055    1.2908 H   0  0  0  0  0  0  0  0  0  0  0  0
    1.4717    0.0933   -0.3058 C   0  0  0  0  0  0  0  0  0  0  0  0
    1.2702   -0.0263   -1.3794 H   0  0  0  0  0  0  0  0  0  0  0  0
    0.9289   -1.1466    0.4331 C   0  0  0  0  0  0  0  0  0  0  0  0
    1.6200   -1.4008    1.2543 H   0  0  0  0  0  0  0  0  0  0  0  0
   -0.2833   -0.8998    1.0927 O   0  0  0  0  0  0  0  0  0  0  0  0
    0.8504   -2.1891   -0.4895 O   0  0  0  0  0  0  0  0  0  0  0  0
    2.8441    0.2864   -0.0744 O   0  0  0  0  0  0  0  0  0  0  0  0
    1.2345    2.5033   -0.4186 O   0  0  0  0  0  0  0  0  0  0  0  0
   -1.5174    2.2699    0.3863 O   0  0  0  0  0  0  0  0  0  0  0  0
   -2.4377   -2.2009   -0.3180 O   0  0  0  0  0  0  0  0  0  0  0  0
   -1.1686   -1.2160   -1.5066 H   0  0  0  0  0  0  0  0  0  0  0  0
   -2.6984   -0.3491   -1.2108 H   0  0  0  0  0  0  0  0  0  0  0  0
    0.4487   -2.9693   -0.0769 H   0  0  0  0  0  0  0  0  0  0  0  0
    3.3550   -0.4050   -0.5178 H   0  0  0  0  0  0  0  0  0  0  0  0
    2.2030    2.4845   -0.3620 H   0  0  0  0  0  0  0  0  0  0  0  0
   -1.2781    2.4426    1.3088 H   0  0  0  0  0  0  0  0  0  0  0  0
   -3.1321   -2.0474    0.3385 H   0  0  0  0  0  0  0  0  0  0  0  0
  1  2  1  0  0  0  0
  2  3  1  0  0  0  0
  2  4  1  0  0  0  0
  4  5  1  0  0  0  0
  4  6  1  0  0  0  0
  6  7  1  0  0  0  0
  6  8  1  0  0  0  0
  8  9  1  0  0  0  0
  8 10  1  0  0  0  0
 10 11  1  0  0  0  0
  2 12  1  0  0  0  0
 10 12  1  0  0  0  0
 10 13  1  0  0  0  0
  8 14  1  0  0  0  0
  6 15  1  0  0  0  0
  4 16  1  0  0  0  0
  1 17  1  0  0  0  0
  1 18  1  0  0  0  0
  1 19  1  0  0  0  0
 13 20  1  0  0  0  0
 14 21  1  0  0  0  0
 15 22  1  0  0  0  0
 16 23  1  0  0  0  0
 17 24  1  0  0  0  0
M  END
