 xtb: 6.7.1 (edcfbbe)
          04052516523D

 27 27  0     0  0            999 V2000
   -3.3920    0.5299   -0.0106 C   0  0  0  0  0  0  0  0  0  0  0  0
   -1.9086    0.5207    0.3417 C   0  0  0  0  0  0  0  0  0  0  0  0
   -1.7791    0.8555    1.3765 H   0  0  0  0  0  0  0  0  0  0  0  0
   -1.1012    1.4569   -0.5730 C   0  0  0  0  0  0  0  0  0  0  0  0
    0.3822    1.4264   -0.2253 C   0  0  0  0  0  0  0  0  0  0  0  0
    0.9287    0.0055   -0.3717 C   0  0  0  0  0  0  0  0  0  0  0  0
    0.7429   -0.3327   -1.3976 H   0  0  0  0  0  0  0  0  0  0  0  0
    0.1498   -0.9334    0.5727 C   0  0  0  0  0  0  0  0  0  0  0  0
   -1.3163   -0.8669    0.2426 C   0  0  0  0  0  0  0  0  0  0  0  0
   -1.9540   -1.8417   -0.1045 O   0  0  0  0  0  0  0  0  0  0  0  0
    2.4131   -0.0945   -0.1115 C   0  0  0  0  0  0  0  0  0  0  0  0
    3.2097   -0.7135   -0.9696 C   0  0  0  0  0  0  0  0  0  0  0  0
    2.9396    0.5266    1.1460 C   0  0  0  0  0  0  0  0  0  0  0  0
   -3.7984    1.5330    0.0836 H   0  0  0  0  0  0  0  0  0  0  0  0
   -3.5376    0.1839   -1.0315 H   0  0  0  0  0  0  0  0  0  0  0  0
   -3.9400   -0.1385    0.6492 H   0  0  0  0  0  0  0  0  0  0  0  0
   -1.2454    1.1466   -1.6106 H   0  0  0  0  0  0  0  0  0  0  0  0
   -1.4904    2.4708   -0.4702 H   0  0  0  0  0  0  0  0  0  0  0  0
    0.9287    2.0942   -0.8934 H   0  0  0  0  0  0  0  0  0  0  0  0
    0.5205    1.7754    0.7984 H   0  0  0  0  0  0  0  0  0  0  0  0
    0.5025   -1.9604    0.4656 H   0  0  0  0  0  0  0  0  0  0  0  0
    0.2930   -0.6125    1.6051 H   0  0  0  0  0  0  0  0  0  0  0  0
    4.2687   -0.8060   -0.7985 H   0  0  0  0  0  0  0  0  0  0  0  0
    2.8376   -1.1543   -1.8793 H   0  0  0  0  0  0  0  0  0  0  0  0
    3.9762    0.2426    1.3028 H   0  0  0  0  0  0  0  0  0  0  0  0
    2.8880    1.6120    1.0801 H   0  0  0  0  0  0  0  0  0  0  0  0
    2.3583    0.2119    2.0096 H   0  0  0  0  0  0  0  0  0  0  0  0
  1  2  1  0  0  0  0
  2  3  1  0  0  0  0
  2  4  1  0  0  0  0
  4  5  1  0  0  0  0
  5  6  1  0  0  0  0
  6  7  1  0  0  0  0
  6  8  1  0  0  0  0
  2  9  1  0  0  0  0
  8  9  1  0  0  0  0
  9 10  2  0  0  0  0
  6 11  1  0  0  0  0
 11 12  2  0  0  0  0
 11 13  1  0  0  0  0
  1 14  1  0  0  0  0
  1 15  1  0  0  0  0
  1 16  1  0  0  0  0
  4 17  1  0  0  0  0
  4 18  1  0  0  0  0
  5 19  1  0  0  0  0
  5 20  1  0  0  0  0
  8 21  1  0  0  0  0
  8 22  1  0  0  0  0
 12 23  1  0  0  0  0
 12 24  1  0  0  0  0
 13 25  1  0  0  0  0
 13 26  1  0  0  0  0
 13 27  1  0  0  0  0
M  END
