16
 xtb: 6.7.1 (edcfbbe)
C           -2.53911809740402       -1.04047055875058       -0.00137203785497
C           -1.23366058617718       -0.29626057886096        0.00223296466868
C           -1.21634855253455        1.10522647723869        0.00154763512500
C           -0.00707494069761        1.79177830933024       -0.00049039888771
C            1.20577173494400        1.10535669858230       -0.00126630180200
C            1.18604256690716       -0.28754960133189        0.00004413226390
C           -0.02173047929535       -0.98598202829613        0.00186275824819
O            2.34457488391260       -1.03622338872122        0.00015888388792
H           -2.38241590004008       -2.12059380383090        0.04884289728151
H           -3.16165737848360       -0.74257422735510        0.84894732014521
H           -3.11104885642288       -0.81982382535473       -0.90935306545445
H           -2.15388531570230        1.65349585215769        0.00248899085368
H           -0.00114009916352        2.87766318673644       -0.00086759335600
H            2.15282186211941        1.63758411764598       -0.00223289260997
H           -0.00525356529677       -2.07189492384543        0.00327855409955
H            3.10248877550463       -0.43518693282873       -0.00063254451095
