27
CONF1
C -3.4179665091 0.5931569695 0.0634911045
C -1.9229347436 0.4980820503 0.0731584919
C -1.1285744895 1.5063757704 -0.2602164200
C 0.3668852456 1.4493599407 -0.2655063041
C 0.8712003137 0.0014220163 -0.2885257534
H 0.6224185263 -0.4202621769 -1.2690037612
C 0.1241421325 -0.7904833239 0.7868381408
C -1.3741223900 -0.8556530410 0.4706841592
H -1.9144153566 -1.2125363361 1.3569418432
O -1.6733286863 -1.8386526335 -0.5145970665
C 2.3711184605 -0.0583789525 -0.1316566126
C 3.1543359428 -0.2920467669 -1.1739404805
C 2.9328511832 0.1668715244 1.2389302310
H -3.8363703840 -0.2604507148 -0.4677726646
H -3.7504848130 1.5120933491 -0.4110158780
H -3.7994303728 0.5658663670 1.0839134413
H -1.5618961927 2.4599000869 -0.5323937497
H 0.7540655680 1.9902652525 -1.1321239311
H 0.7398563699 1.9617907544 0.6265382193
H 0.5115466874 -1.8094206892 0.8500547975
H 0.2486443688 -0.3074113801 1.7558153400
H -1.2159678814 -1.6044983918 -1.3335370674
H 4.2273359085 -0.3192968559 -1.0854962657
H 2.7579124696 -0.4667268705 -2.1603275291
H 2.7008284670 -0.6798635483 1.8829947316
H 4.0126290784 0.2786390931 1.1943077298
H 2.5068863842 1.0586715885 1.6934113226
27
CONF2
C -3.4223921522 0.5637920575 0.0793009537
C -1.9264429346 0.4843861949 0.1023545554
C -1.1395937987 1.5238774648 -0.1411895546
C 0.3568001326 1.4833602931 -0.1220923739
C 0.8704177008 0.0504275802 -0.2801584099
H 0.6147724449 -0.2899946595 -1.2901789861
C 0.1290226520 -0.8395452649 0.7245801876
C -1.3684336031 -0.8907973993 0.4022818988
H -1.9074622749 -1.3151179695 1.2591778041
O -1.6586448164 -1.8011591077 -0.6525419423
C 2.3673461228 -0.0654256140 -0.1279592184
C 3.1016504399 -0.6491676920 -1.0632760305
C 2.9867744095 0.4922775390 1.1175912429
H -3.7595545357 1.5121306011 -0.3292117686
H -3.8163377096 0.4560373366 1.0895502275
H -3.8245725025 -0.2518307726 -0.5196227326
H -1.5812000731 2.4903434286 -0.3458139462
H 0.7537047761 2.1133988520 -0.9214581945
H 0.7006173090 1.9022563348 0.8275852124
H 0.5290992355 -1.8552623627 0.7023440292
H 0.2497624450 -0.4405574107 1.7319228031
H -1.2029205092 -1.5033752162 -1.4515339041
H 4.1688700966 -0.7558682809 -0.9647664775
H 2.6703155611 -1.0461635897 -1.9670189445
H 2.4455008624 0.1623164778 2.0010952582
H 4.0219559987 0.1732038793 1.2015793869
H 2.9675387742 1.5808755310 1.0950869843
27
CONF10
C -3.4250743753 0.6332065720 0.1336953183
C -1.9314648648 0.4981204982 0.0844809953
C -1.1346612476 1.4988422404 -0.2653306260
C 0.3573657856 1.4246496584 -0.3221190279
C 0.8556642699 -0.0247550709 -0.2819108015
H 0.5859036866 -0.5036292655 -1.2290382937
C 0.1065177282 -0.7665368108 0.8259380434
C -1.3750679095 -0.8586460895 0.4620242699
H -1.9341304285 -1.2430540999 1.3331917667
O -1.4970403505 -1.7998475057 -0.6010823782
C 2.3549649950 -0.0775178565 -0.1286357051
C 3.1363971172 -0.3336259585 -1.1667457175
C 2.9190914501 0.1858177200 1.2347078351
H -3.9025372863 -0.0394661120 -0.5779384742
H -3.7250582970 1.6498030600 -0.1044203533
H -3.7923701204 0.3815244921 1.1280824024
H -1.5627181303 2.4608287761 -0.5168930396
H 0.7154316490 1.9135110311 -1.2312404427
H 0.7648549784 1.9853082315 0.5253530352
H 0.4981592672 -1.7792942499 0.9320586159
H 0.2028944039 -0.2407043978 1.7755271828
H -2.4194459309 -1.8393223674 -0.8839870708
H 4.2100935706 -0.3544854867 -1.0818535511
H 2.7343888531 -0.5365698079 -2.1452550849
H 2.4915524333 1.0884685579 1.6657683645
H 2.6884683455 -0.6438522287 1.9010052413
H 3.9986859750 0.2982612247 1.1858627830
27
CONF4
C -3.4243376939 0.5776696194 0.0775181527
C -1.9294418504 0.4900651852 0.0825687988
C -1.1397617673 1.4980802743 -0.2601873388
C 0.3551836116 1.4409665824 -0.2879076155
C 0.8560192700 -0.0078533399 -0.2680317247
H 0.5698085266 -0.4694099706 -1.2198750653
C 0.1153371134 -0.7539235638 0.8430707136
C -1.3678070693 -0.8579020269 0.4776507966
H -1.9311249016 -1.2293030580 1.3513824366
O -1.5891046526 -1.7423113553 -0.6153279846
C 2.3567896814 -0.0700820272 -0.1354507425
C 3.1205728287 -0.3548362350 -1.1792875292
C 2.9421076321 0.2120948636 1.2151292855
H -3.8299255696 -0.2163548788 -0.5477762066
H -3.7570638599 1.5383905554 -0.3045364713
H -3.8142541296 0.4426285461 1.0860003069
H -1.5774418830 2.4496046979 -0.5319437012
H 0.7249169683 1.9485534647 -1.1818096787
H 0.7442128818 1.9867028454 0.5776427052
H 0.5328364969 -1.7551271314 0.9717245882
H 0.2023893630 -0.2149533165 1.7867368645
H -1.2606489288 -2.6203087670 -0.3805626225
H 4.1950703226 -0.3849492560 -1.1091979628
H 2.7028343419 -0.5686132600 -2.1489377727
H 2.5421091329 1.1364030848 1.6262208252
H 2.6990032483 -0.5929967303 1.9066650914
H 4.0234736696 0.2966001646 1.1520886658
27
CONF5
C -3.4283640023 0.5473221115 0.0881943489
C -1.9326209348 0.4761240636 0.1091152647
C -1.1505703580 1.5158013551 -0.1458560455
C 0.3457719682 1.4778149980 -0.1507519892
C 0.8542760546 0.0388537767 -0.2600519364
H 0.5601350315 -0.3482826615 -1.2423818560
C 0.1191548479 -0.8020250432 0.7895812551
C -1.3616941847 -0.8919582176 0.4122189409
H -1.9249749546 -1.3273614832 1.2559772885
O -1.5712710202 -1.7001456457 -0.7400724118
C 2.3520267582 -0.0766295756 -0.1325234040
C 3.0677831790 -0.6895436725 -1.0635056666
C 2.9932926314 0.5139313261 1.0870557766
H -3.8304486889 0.3366758683 1.0788638084
H -3.8159561677 -0.2045994722 -0.5976701778
H -3.7672124405 1.5291692993 -0.2294283429
H -1.5972097365 2.4792951995 -0.3529850140
H 0.7247750341 2.0731370297 -0.9846377400
H 0.7079994158 1.9376497672 0.7733358411
H 0.5511709020 -1.8039062287 0.8424585608
H 0.1980319916 -0.3372960291 1.7729916235
H -1.2396855562 -2.5906235507 -0.5641395191
H 4.1367525195 -0.7964553472 -0.9829434741
H 2.6154012302 -1.1080824546 -1.9470869310
H 2.4601651435 0.2172620317 1.9872633855
H 4.0271479735 0.1892581416 1.1675886212
H 2.9821535957 1.6013770527 1.0299650441
27
CONF12
C -3.4319940684 0.5924895543 0.1508489861
C -1.9358024675 0.4813846320 0.1167479692
C -1.1480918660 1.5191084441 -0.1315516557
C 0.3463739464 1.4704858246 -0.1619404632
C 0.8547982997 0.0321401878 -0.2747971814
H 0.5772074300 -0.3574668816 -1.2600358729
C 0.1121177252 -0.8223699963 0.7585773494
C -1.3675240585 -0.8966793357 0.3843832537
H -1.9249255779 -1.3567591157 1.2192094450
O -1.4775342342 -1.7479917101 -0.7530971468
C 2.3503854237 -0.0854158251 -0.1244272810
C 3.0738218207 -0.7350111407 -1.0238841428
C 2.9815644705 0.5440826560 1.0812637236
H -3.7415799504 1.6244840813 0.0117947158
H -3.8137981755 0.2361623638 1.1070637930
H -3.8872944677 -0.0089395557 -0.6352933285
H -1.5872225733 2.4931352299 -0.3055545544
H 0.7164198182 2.0646903179 -1.0007953380
H 0.7208046439 1.9315002208 0.7566290693
H 0.5194510717 -1.8344034477 0.7708225622
H 0.2028780876 -0.3879946200 1.7543300820
H -2.4002708139 -1.7786697916 -1.0364527090
H 4.1405193568 -0.8487659668 -0.9243989958
H 2.6285663023 -1.1837001467 -1.8960711730
H 3.0068038793 1.6274467708 0.9721280045
H 2.4190633208 0.3064339025 1.9809665389
H 4.0025803244 0.1924975831 1.2021260299
27
CONF3
C -3.4294887127 0.5948309219 0.0189246729
C -1.9340690469 0.5078975961 0.0457805561
C -1.1413794044 1.4900839064 -0.3613345846
C 0.3542922755 1.4433418931 -0.3494329251
C 0.8767199741 0.0077879670 -0.2344139815
H 0.6647039169 -0.5059029972 -1.1781459707
C 0.1108286313 -0.7060643660 0.8834602727
C -1.3816644547 -0.8074332198 0.5508756339
H -1.9318667336 -1.1034789769 1.4530902789
O -1.6565404203 -1.8623489996 -0.3646906390
C 2.3716521086 -0.0262180925 -0.0059230869
C 2.9352290922 0.4640635724 1.0869888192
C 3.1762684460 -0.6509983388 -1.1041982713
H -3.8416100618 -0.3009661606 -0.4433423807
H -3.7625290789 1.4707192371 -0.5305728956
H -3.8170415914 0.6493882231 1.0360371510
H -1.5773295496 2.4168050713 -0.7110235450
H 0.7429410755 1.9099966804 -1.2578128123
H 0.7198029537 2.0352142769 0.4951094406
H 0.5074097946 -1.7123093061 1.0329611319
H 0.2228500440 -0.1526807390 1.8156591381
H -1.2105438095 -1.6693839869 -1.2006053760
H 4.0012038786 0.4349085469 1.2352797254
H 2.3626745548 0.9119336520 1.8810304172
H 3.0010878742 -0.1257471987 -2.0423149671
H 4.2385285969 -0.6213020401 -0.8783460758
H 2.8761300971 -1.6891098516 -1.2425046519
27
CONF16
C -3.4487077118 0.5928656242 -0.0565388327
C -1.9500487950 0.5165442558 -0.0419893328
C -1.1820672300 1.4090658477 -0.6517097657
C 0.3136921482 1.3891954574 -0.6550339004
C 0.8567041906 0.0190470101 -0.2548974282
H 0.5798957311 -0.7014225189 -1.0354269556
C 0.1283257147 -0.4203240316 1.0211487629
C -1.3512671221 -0.6495823402 0.7142202928
H -1.8980616649 -0.7773645652 1.6649389132
O -1.4417022676 -1.8654135521 -0.0245577645
C 2.3561498694 -0.0426884853 -0.0969217279
C 3.1643694554 1.0011148827 -0.2004922473
C 2.9083272893 -1.4132203212 0.1798479236
H -3.8797559139 -0.2637593437 -0.5736829072
H -3.7796628116 1.4960873822 -0.5613469305
H -3.8348896134 0.5972681974 0.9621944739
H -1.6392099754 2.2405835354 -1.1725888087
H 0.6804534722 1.6669755445 -1.6454173454
H 0.6641199074 2.1475222323 0.0525964310
H 0.5374844865 -1.3561920349 1.3993270109
H 0.2274212987 0.3479792754 1.7888875290
H -2.3623695289 -2.0182162716 -0.2718166999
H 4.2306880504 0.8889311166 -0.0930407896
H 2.8206747058 2.0007385851 -0.3938468245
H 2.8511529792 -1.6347940250 1.2450127848
H 2.3396950698 -2.1723825677 -0.3525100377
H 3.9514870324 -1.4748917459 -0.1185773978
27
CONF6
C -3.4307663867 0.5797029925 0.0677625687
C -1.9368496046 0.4869327410 0.1114546403
C -1.1352291984 1.5075535886 -0.1588012589
C 0.3598323355 1.4444469081 -0.1508796246
C 0.8560492007 -0.0064115370 -0.1788877616
H 0.5909776960 -0.4321067000 -1.1534527306
C 0.0810787335 -0.7880834752 0.8816881906
C -1.3883472203 -0.8789182909 0.4614317962
H -1.9804948293 -1.2894162723 1.2974311860
O -1.5684105162 -1.7130120411 -0.6774300836
C 2.3558585541 -0.0582777568 -0.0200486569
C 2.9605486404 -0.0979837087 1.1569374945
C 3.1256704885 -0.0312576681 -1.3059222310
H -3.8200940116 -0.1832599437 -0.6047508729
H -3.7503972997 1.5582159855 -0.2786305875
H -3.8494598906 0.3996790576 1.0575085248
H -1.5624671105 2.4729573260 -0.3959730886
H 0.7491225289 1.9952133906 -1.0100808041
H 0.7382017650 1.9403518693 0.7496145272
H 0.5006398824 -1.7895297786 0.9979354602
H 0.1315168456 -0.2781888166 1.8439832489
H -1.2610368334 -2.6042877949 -0.4652308117
H 4.0345491058 -0.1143513329 1.2375655884
H 2.4193574922 -0.1166169559 2.0864484303
H 2.9149213931 -0.9293640342 -1.8853763646
H 2.8259805077 0.8262627617 -1.9061436596
H 4.1951133561 0.0237393689 -1.1222510560
27
CONF7
C -3.4325352710 0.5808181748 0.0262331270
C -1.9376940185 0.4999993039 0.0645066869
C -1.1446133336 1.4896911442 -0.3213413768
C 0.3507179144 1.4362479520 -0.3201191247
C 0.8578044583 -0.0045516466 -0.1983735923
H 0.5957164164 -0.5321736621 -1.1218532444
C 0.0946043073 -0.6834136600 0.9409120615
C -1.3793144309 -0.8194239293 0.5503000455
H -1.9599645292 -1.1412935836 1.4319457436
O -1.5698566283 -1.7688931255 -0.4925334456
C 2.3569696505 -0.0446660699 -0.0182632797
C 2.9502642239 0.3311294160 1.1041115055
C 3.1323824846 -0.5220878846 -1.2075948031
H -3.8412870007 0.4983167748 1.0329014300
H -3.8236765080 -0.2471914802 -0.5631971140
H -3.7608129436 1.5183696967 -0.4129116944
H -1.5801247891 2.4222108113 -0.6553501657
H 0.7316362490 1.8920681281 -1.2370831990
H 0.7314533964 2.0306723344 0.5168968734
H 0.5193375705 -1.6683644734 1.1464348070
H 0.1598376060 -0.0860379907 1.8503429235
H -1.2578962842 -2.6326051188 -0.1915375228
H 4.0213657837 0.3079146882 1.2130338513
H 2.3976148704 0.6772103587 1.9604947372
H 2.8979346073 0.0915520326 -2.0762995890
H 4.2023280400 -0.4789343703 -1.0233666033
H 2.8570999432 -1.5490116010 -1.4448529297
27
CONF11
C -3.4367956071 0.6342881190 0.0722714207
C -1.9417100230 0.5070107677 0.0620600209
C -1.1432146040 1.4900252882 -0.3316006139
C 0.3501150683 1.4222694012 -0.3539104857
C 0.8572176393 -0.0163296300 -0.2099899269
H 0.6120956170 -0.5623124725 -1.1264651876
C 0.0859628965 -0.6916741116 0.9258593347
C -1.3853624930 -0.8200517847 0.5339398849
H -1.9623164050 -1.1563528703 1.4130606545
O -1.4728606075 -1.8241393949 -0.4734024819
C 2.3538123787 -0.0503048787 -0.0075629800
C 2.9320323158 0.3570993995 1.1115650357
C 3.1453519869 -0.5610848006 -1.1719095421
H -3.8229223364 0.4426820151 1.0728784880
H -3.8955847792 -0.0850113077 -0.6051999670
H -3.7376450487 1.6319147709 -0.2348858389
H -1.5714871410 2.4320376779 -0.6495892901
H 0.7213168513 1.8590696815 -1.2841827564
H 0.7438751917 2.0320451507 0.4658741796
H 0.4874867545 -1.6888755120 1.1110604598
H 0.1590836027 -0.1057132227 1.8415607149
H -2.3877159048 -1.8904542964 -0.7752681408
H 4.0014564992 0.3351949767 1.2362948640
H 2.3680658973 0.7258764291 1.9509743843
H 2.8617952820 -1.5901073715 -1.3893306902
H 2.9325050308 0.0349716884 -2.0583085110
H 4.2123639386 -0.5247194124 -0.9699100665
27
CONF8
C -2.7817511656 0.8120298578 0.8008198568
C -1.5124374885 0.5163537251 0.0619048351
C -0.9009544223 1.4104100897 -0.7030790407
C 0.3955342333 1.1925384328 -1.4191315301
C 1.1493751864 -0.0453116848 -0.9242197140
H 1.8657368665 -0.3450210407 -1.6980380363
C 0.1389736558 -1.1873262223 -0.7584917576
C -0.9136722052 -0.8547969185 0.3009058471
H -0.4494890566 -0.8599253254 1.2973092443
O -1.8974315725 -1.8751302338 0.3744846657
C 1.9362174190 0.1755454392 0.3481177164
C 1.6624504194 1.1194128435 1.2345116130
C 3.0857385842 -0.7697277725 0.5394552316
H -3.2099945385 1.7561670169 0.4762508522
H -2.5751330421 0.8663087832 1.8698370356
H -3.5076632607 0.0151455097 0.6536302561
H -1.3499033857 2.3857345832 -0.8433911651
H 0.1861532478 1.0788914592 -2.4881607667
H 1.0243999840 2.0791199197 -1.3105809367
H -0.3670046981 -1.3435586065 -1.7147816332
H 0.6387401589 -2.1178032624 -0.4846886885
H -2.2907007623 -1.9853529430 -0.5025250572
H 2.2524611272 1.2348717591 2.1287258237
H 0.8427990372 1.8057692094 1.1182834681
H 3.5714395034 -0.6030848282 1.4967112798
H 2.7421444800 -1.8017342940 0.4976211403
H 3.8200037102 -0.6322758523 -0.2534558921
27
CONF14
C -2.8374468322 0.7993228097 0.7443469040
C -1.5271287419 0.5216297578 0.0687809741
C -0.9108391472 1.4210183833 -0.6858973125
C 0.3908097961 1.2133883595 -1.3941615380
C 1.1382228347 -0.0395957355 -0.9287382860
H 1.8335743967 -0.3406013611 -1.7204276468
C 0.1230653936 -1.1738547907 -0.7487782044
C -0.9064814134 -0.8354834304 0.3274866956
H -0.3988190958 -0.7988358771 1.3086451581
O -1.8553311365 -1.8921454270 0.3381731187
C 1.9536740561 0.1608703772 0.3290199190
C 1.6878548204 1.0804034738 1.2433468305
C 3.1171003742 -0.7754495853 0.4720239247
H -3.6145995475 0.1484578556 0.3451394623
H -3.1371586794 1.8307936305 0.5808755600
H -2.7567827952 0.6253055767 1.8171757740
H -1.3690161802 2.3902062805 -0.8398132957
H 0.1821941797 1.1253900759 -2.4656493425
H 1.0240405305 2.0942575556 -1.2637843619
H -0.4150937917 -1.3360237680 -1.6843907524
H 0.6164060706 -2.1089583654 -0.4807964519
H -2.4656959285 -1.7613426907 1.0753341990
H 2.2953563921 1.1832896665 2.1273456250
H 0.8584557718 1.7598858344 1.1577590745
H 3.6112258268 -0.6407830403 1.4300743145
H 2.7861336843 -1.8091474653 0.3898976555
H 3.8406355585 -0.5957451185 -0.3223076900
27
CONF9
C -2.8272578899 0.7709832226 0.7543599773
C -1.5249737105 0.5098979565 0.0637945010
C -0.9128807586 1.4122953409 -0.6900919684
C 0.3928192588 1.2119728812 -1.3942821447
C 1.1460392377 -0.0348778556 -0.9219831971
H 1.8501387039 -0.3297358656 -1.7086965851
C 0.1384294441 -1.1787407481 -0.7494647816
C -0.9082696954 -0.8468826406 0.3167585322
H -0.4213687601 -0.8161706687 1.3089782507
O -1.9404132396 -1.8222290827 0.3399369266
C 1.9518995373 0.1727167214 0.3411461270
C 1.6633168950 1.0801612014 1.2604246540
C 3.1361264070 -0.7384285937 0.4812009304
H -3.5564549230 0.0196368348 0.4574603501
H -3.2046156768 1.7597501181 0.5093827792
H -2.6971289029 0.6935790435 1.8333519800
H -1.3754997901 2.3794182846 -0.8398192364
H 0.1909096657 1.1212269219 -2.4668541302
H 1.0196103188 2.0969629260 -1.2612256695
H -0.3838265108 -1.3400596348 -1.6950853227
H 0.6546554180 -2.1030990173 -0.4812880557
H -1.5487609525 -2.6875354141 0.5147241614
H 2.2644969907 1.1895724948 2.1479721501
H 0.8199372720 1.7422419505 1.1752169750
H 3.8646811342 -0.5243255441 -0.3000478088
H 3.6151390743 -0.6095102302 1.4476497535
H 2.8347216668 -1.7789230476 0.3750291791
27
CONF17
C -3.4476667104 0.6023429872 -0.0036131848
C -1.9532312629 0.5123443928 -0.0116061651
C -1.1676917292 1.4168280578 -0.5769230992
C 0.3255405497 1.3451220861 -0.6331535487
C 0.8628859791 -0.0409110514 -0.2548712475
H 0.6047838394 -0.7347533164 -1.0667186625
C 0.1080051104 -0.5148992971 0.9890604423
C -1.3733054511 -0.7136159813 0.6526377501
H -1.9309856729 -0.9031944192 1.5860404074
O -1.5754343800 -1.8119575471 -0.2301759170
C 2.3731302753 -0.0399495699 -0.1082621177
C 3.1564838315 0.6347358279 -0.9375335492
C 2.9775194101 -0.8685897983 0.9870566320
H -3.8661997419 -0.3030149911 -0.4409532383
H -3.7885592869 1.4633579544 -0.5712231565
H -3.8163544912 0.6827503388 1.0186109849
H -1.6067699682 2.2921691957 -1.0375932941
H 0.6416165702 1.6125859355 -1.6427056067
H 0.7462658595 2.0946559752 0.0460384917
H 0.5081335493 -1.4597348299 1.3562435571
H 0.1877306430 0.2307075224 1.7818889449
H -1.2608718862 -2.6203032232 0.1960816427
H 4.2288146637 0.6125282475 -0.8381791310
H 2.7784436722 1.2292755816 -1.7498734624
H 2.6952159953 -1.9140655445 0.8750467339
H 4.0617076826 -0.8012706757 0.9531736121
H 2.6402118440 -0.5255728560 1.9629771318
27
CONF13
C -2.6482146247 0.4077011860 1.2766632139
C -1.4572455273 0.4214954365 0.3677825217
C -0.8841182751 1.5422463846 -0.0502180838
C 0.3347028853 1.6174782989 -0.9171627105
C 1.0870650268 0.2871885720 -1.0073864404
H 1.7162309293 0.3071937886 -1.9047560772
C 0.0543077178 -0.8319770382 -1.1967020778
C -0.8880117390 -0.9356453248 0.0039639056
H -0.3380162254 -1.3306165917 0.8701667803
O -1.8992531565 -1.9045237408 -0.2262608691
C 1.9974979073 -0.0199033827 0.1663061350
C 2.9163504349 -0.9680780482 0.0501390399
C 1.8513309188 0.7619309475 1.4356432243
H -2.3613583584 0.0071810428 2.2492403974
H -3.4265806923 -0.2409744255 0.8800913203
H -3.0466231559 1.4095057545 1.4102558423
H -1.3089558327 2.4956956188 0.2363544975
H 0.0206179566 1.9117496047 -1.9246244028
H 0.9933464342 2.4075982177 -0.5532896551
H -0.5400345045 -0.6133133214 -2.0879787167
H 0.5514317917 -1.7919929428 -1.3432547793
H -2.3614691590 -1.6768185411 -1.0449910320
H 3.5704729486 -1.2311862850 0.8638192908
H 3.0527021339 -1.5231106558 -0.8631096859
H 2.2311860609 1.7737479878 1.2989496704
H 0.8085605748 0.8353438331 1.7328928645
H 2.4197709123 0.2929227539 2.2342808117
27
CONF15
C -2.6762966518 0.3899738463 1.2395545289
C -1.4591184577 0.4147275747 0.3684146996
C -0.8908499601 1.5380853707 -0.0481779796
C 0.3309547876 1.6216448006 -0.9103834105
C 1.0845898018 0.2932958158 -1.0090059623
H 1.7085446098 0.3166957189 -1.9099393066
C 0.0553209171 -0.8302202835 -1.1924761304
C -0.8737175357 -0.9353688678 0.0188648044
H -0.2949029342 -1.2957667353 0.8897817257
O -1.9375941992 -1.8427370424 -0.2291323319
C 2.0013074201 -0.0142424447 0.1602043412
C 2.9140222206 -0.9686511335 0.0442483092
C 1.8666606970 0.7747322100 1.4263928480
H -3.0343498090 1.3968942637 1.4343185546
H -2.4474906515 -0.0993141842 2.1859382733
H -3.4610880551 -0.1874416215 0.7546965032
H -1.3294121185 2.4879781086 0.2280994468
H 0.0155310790 1.9207240366 -1.9159017215
H 0.9880830694 2.4108312481 -0.5415481766
H -0.5579694291 -0.6190381466 -2.0714745390
H 0.5662274800 -1.7828033834 -1.3464867365
H -1.5657578329 -2.7046511206 -0.4558791712
H 3.5719511132 -1.2300941328 0.8554214882
H 3.0440032499 -1.5277227381 -0.8675917627
H 2.4264609716 0.3002154039 2.2280705835
H 2.2640559969 1.7791677862 1.2851964596
H 0.8246212063 0.8680993096 1.7210291576
