27
CONF1
C -3.4293210353 0.5819642508 0.0690001661
C -1.9331778203 0.4788656344 0.0761898738
C -1.1317596182 1.5006725260 -0.2511315907
C 0.3656805030 1.4373912620 -0.2862497576
C 0.8868250161 -0.0086070173 -0.2871525087
H 0.6461023608 -0.4421912475 -1.2677233049
C 0.1302312768 -0.7954985302 0.7887332115
C -1.3616655712 -0.8596688379 0.4776547333
H -1.8968908414 -1.2217801657 1.3639632219
O -1.6571304692 -1.8599082320 -0.5382954083
C 2.3887385853 -0.0616721252 -0.1245154188
C 3.1800858220 -0.3163030120 -1.1720024624
C 2.9490605923 0.1929413191 1.2450513878
H -3.8719346086 -0.1743749783 -0.5897637894
H -3.7613172265 1.5674698980 -0.2683125487
H -3.8363157373 0.4016925609 1.0719280725
H -1.5835569706 2.4570494587 -0.5145398529
H 0.7347835583 1.9634099458 -1.1753800274
H 0.7726835567 1.9846644683 0.5772255605
H 0.5195827694 -1.8155305312 0.8818513243
H 0.2578573242 -0.3031026265 1.7614900176
H -1.3538409585 -1.5015740299 -1.3835554999
H 4.2627907646 -0.3317688715 -1.0744322493
H 2.7640188173 -0.5128396472 -2.1573128298
H 2.6635292453 -0.6088347970 1.9363911349
H 4.0401561992 0.2490183464 1.2197082645
H 2.5619493240 1.1253313220 1.6721054320
27
CONF2
C -3.4334756849 0.5623535964 0.0827030453
C -1.9366152362 0.4700349676 0.0980694583
C -1.1405401017 1.5145845787 -0.1646842748
C 0.3580638547 1.4660204801 -0.1821212771
C 0.8870282248 0.0288971420 -0.2788413549
H 0.6406863491 -0.3507804960 -1.2801813460
C 0.1326719373 -0.8270989160 0.7494581102
C -1.3576371022 -0.8845819728 0.4276618975
H -1.8933963428 -1.2999291830 1.2900242021
O -1.6411340763 -1.8283641243 -0.6439637936
C 2.3868712304 -0.0685619249 -0.1212493508
C 3.1369499258 -0.6313800723 -1.0749699328
C 2.9974395699 0.4673843830 1.1421619124
H -3.7697613399 1.5684839480 -0.1817493373
H -3.8491971323 0.3032015638 1.0645381429
H -3.8637675119 -0.1442424508 -0.6367420168
H -1.5980233856 2.4808600066 -0.3766876949
H 0.7365012982 2.0653491508 -1.0196034521
H 0.7401178469 1.9485213072 0.7295110099
H 0.5313227789 -1.8470808181 0.7812962480
H 0.2528923494 -0.3919272525 1.7497279137
H -1.3547773226 -1.4140306388 -1.4693142112
H 4.2139885422 -0.7300589849 -0.9640966403
H 2.6914170256 -1.0150301925 -1.9896927095
H 2.5086843189 0.0528130040 2.0311417016
H 4.0636299950 0.2326736476 1.1918339320
H 2.8866706475 1.5563033930 1.2034378022
27
CONF4
C -3.4359724598 0.5744370386 0.0565124921
C -1.9394189709 0.4790011644 0.0689934099
C -1.1422819258 1.5053675280 -0.2505002061
C 0.3549171563 1.4465057465 -0.2889896375
C 0.8770416425 0.0009333117 -0.2937189291
H 0.6236036626 -0.4358980170 -1.2682868977
C 0.1296800351 -0.7854028294 0.7883982135
C -1.3645525084 -0.8496187260 0.4907166948
H -1.8952104722 -1.1794255368 1.3971335692
O -1.6561915540 -1.8003161237 -0.5710555238
C 2.3794390661 -0.0545988660 -0.1398865170
C 3.1635481070 -0.3442194284 -1.1837800991
C 2.9506350077 0.2306449153 1.2194371204
H -3.8725081332 -0.1710427667 -0.6185065451
H -3.7706486316 1.5646242119 -0.2641924229
H -3.8470881480 0.3735302472 1.0538870225
H -1.5980307756 2.4618259212 -0.5063225815
H 0.7187715811 1.9736748362 -1.1797299103
H 0.7630556032 1.9958823327 0.5723312688
H 0.5211248032 -1.8063977405 0.8764526952
H 0.2664127086 -0.2981074917 1.7624849636
H -1.4321460159 -2.6764603058 -0.2300860933
H 4.2465903117 -0.3651359214 -1.0907170394
H 2.7414272153 -0.5635110513 -2.1616290148
H 2.5704444733 1.1740634912 1.6278667231
H 2.6673884865 -0.5536495929 1.9314922904
H 4.0417146799 0.2821237297 1.1852668620
27
CONF5
C -3.4355067518 0.5662470067 0.0235421726
C -1.9387869304 0.4820591892 0.0666189765
C -1.1432197946 1.5078159698 -0.2597110638
C 0.3547964887 1.4532790074 -0.2851356858
C 0.8739478016 0.0071661332 -0.2801281676
H 0.6056714408 -0.4398772838 -1.2461135374
C 0.1317176288 -0.7610078508 0.8188794428
C -1.3624531280 -0.8346414806 0.5219208394
H -1.8936741737 -1.1415386317 1.4359018990
O -1.6524359386 -1.8132947279 -0.5147873984
C 2.3771151076 -0.0610591711 -0.1452040496
C 3.1399167813 -0.4194664821 -1.1832255610
C 2.9750039757 0.2832583197 1.1883637755
H -3.8689682270 0.3265998819 1.0024978326
H -3.8494785706 -0.1575688758 -0.6884526333
H -3.7707894810 1.5642574513 -0.2714270879
H -1.6009953845 2.4574749215 -0.5361454337
H 0.7238976423 1.9783265297 -1.1748937849
H 0.7557005836 2.0049419868 0.5779937971
H 0.5259785053 -1.7786741296 0.9276751999
H 0.2672569088 -0.2529567116 1.7824454084
H -1.4352937164 -2.6802576812 -0.1474287119
H 4.2232416165 -0.4627593214 -1.1027865402
H 2.6986146628 -0.6833424891 -2.1413388837
H 2.6623798317 -0.4366565278 1.9530234785
H 4.0666322662 0.2798557341 1.1426761293
H 2.6457834374 1.2686225498 1.5354724566
27
CONF6
C -3.4462138358 0.5812229486 -0.0068570649
C -1.9520480676 0.4704215050 0.0506073392
C -1.1324801622 1.4452142164 -0.3590595926
C 0.3637259877 1.3606737859 -0.3690134163
C 0.8725113803 -0.0804524908 -0.1839613474
H 0.6412173511 -0.6237882060 -1.1136180644
C 0.0849039715 -0.7295556344 0.9495850104
C -1.4011686789 -0.8122382025 0.6177390127
H -1.9585421382 -1.0483531759 1.5372685891
O -1.6717423702 -1.8616335077 -0.3533192263
C 2.3756002878 -0.1119765111 -0.0211388877
C 2.9887080454 -0.5524267806 1.0828916909
C 3.1623685138 0.3941112457 -1.1979766290
H -3.8755638546 -0.2114695443 -0.6312037911
H -3.7600281252 1.5455493400 -0.4158023413
H -3.8851209918 0.4660637280 0.9922358011
H -1.5666189568 2.3768663763 -0.7216236126
H 0.7336849575 1.7814212328 -1.3109766290
H 0.7771405966 1.9992879740 0.4277060663
H 0.4524345809 -1.7402597451 1.1625802729
H 0.2025433831 -0.1390589069 1.8681150418
H -1.4463023603 -2.7004363690 0.0709151845
H 4.0738721146 -0.5590839245 1.1473140086
H 2.4432774330 -0.9197659401 1.9461793188
H 2.8355519384 -0.0949116719 -2.1236055061
H 3.0113495924 1.4703598781 -1.3424385834
H 4.2328801217 0.2181771111 -1.0665970563
27
CONF7
C -3.4406147317 0.5770553970 -0.0987703362
C -1.9470740936 0.4681244608 -0.0234063963
C -1.1222120280 1.3541696890 -0.5929062939
C 0.3733152570 1.2598432115 -0.5869819826
C 0.8728320352 -0.1319751456 -0.1579541269
H 0.6346625958 -0.8243456322 -0.9804586915
C 0.0832489457 -0.5713470888 1.0705677520
C -1.4038011249 -0.7001098885 0.7579435218
H -1.9620644575 -0.7679650995 1.7040169296
O -1.6829142958 -1.9018461618 -0.0142237110
C 2.3759234060 -0.1429133312 0.0062763185
C 2.9881369555 -0.3648624021 1.1742904854
C 3.1625811434 0.1294094216 -1.2456427911
H -3.8786157653 0.6384521876 0.9054361669
H -3.8762182331 -0.3083396684 -0.5770276864
H -3.7489474107 1.4586838159 -0.6673206619
H -1.5506862450 2.2130920294 -1.1092079449
H 0.7465527625 1.5100600589 -1.5865663721
H 0.7911175273 2.0221347190 0.0896467466
H 0.4443825538 -1.5327413997 1.4544380142
H 0.2056249814 0.1669775825 1.8745398885
H -1.4897603095 -2.6535584397 0.5613125049
H 4.0731451460 -0.3589511122 1.2407574929
H 2.4412939359 -0.5552022424 2.0920830243
H 3.0166811406 1.1607113216 -1.5885739585
H 4.2326476350 -0.0248303353 -1.0856915854
H 2.8298795604 -0.5221203196 -2.0627509653
27
CONF12
C -3.4353639556 0.6229035029 0.0750170869
C -1.9395033576 0.5091116618 0.0813258660
C -1.1345555755 1.5204124969 -0.2663305887
C 0.3620249599 1.4450799222 -0.3087840570
C 0.8682243354 -0.0061790623 -0.2876702730
H 0.6097295804 -0.4577604729 -1.2537099380
C 0.1149430747 -0.7653643983 0.8117078759
C -1.3751817505 -0.8239629592 0.5175623169
H -1.9087829970 -1.1488172425 1.4235206128
O -1.5784234579 -1.8380738271 -0.5106082507
C 2.3700401284 -0.0779511001 -0.1349121083
C 3.1456441290 -0.4215342825 -1.1690444927
C 2.9512194423 0.2501425968 1.2104753414
H -3.7587600195 1.6210867855 -0.2322723628
H -3.8472771313 0.4119280887 1.0698661934
H -3.8891018921 -0.1026873700 -0.6129996601
H -1.5812604177 2.4756623611 -0.5423574853
H 0.7292444513 1.9520895447 -1.2097220944
H 0.7775642589 2.0056708536 0.5417011399
H 0.4992050524 -1.7857271803 0.9224303831
H 0.2533088403 -0.2556700712 1.7728922944
H -2.5300361846 -1.9223543089 -0.6538994303
H 4.2283105533 -0.4604913890 -1.0776913271
H 2.7160188284 -0.6736796397 -2.1357128500
H 2.6012154293 1.2228355696 1.5760879262
H 2.6454640329 -0.4918795789 1.9582827898
H 4.0434535482 0.2671241987 1.1734265299
27
CONF10
C -3.4365135603 0.6200331491 0.0911427412
C -1.9411038633 0.5023600414 0.0821848784
C -1.1356451330 1.5220505049 -0.2385662273
C 0.3606590305 1.4471797726 -0.2864085576
C 0.8699367949 -0.0034247834 -0.2965931384
H 0.6203472329 -0.4320594381 -1.2751521809
C 0.1124361512 -0.7906366739 0.7792754360
C -1.3761519815 -0.8433577653 0.4775254738
H -1.9127612455 -1.1984045137 1.3702048417
O -1.5713741475 -1.8254804875 -0.5832302754
C 2.3714551851 -0.0701983808 -0.1349283734
C 3.1582627881 -0.3484656782 -1.1799457069
C 2.9380875350 0.1935907760 1.2304344615
H -3.9006533234 -0.0930677934 -0.6029774710
H -3.7603541140 1.6241329362 -0.1957423529
H -3.8382860542 0.3944359273 1.0870203719
H -1.5822807677 2.4854680890 -0.4848777210
H 0.7261210381 1.9725875593 -1.1774453072
H 0.7786072228 1.9900084196 0.5744816023
H 0.4975870850 -1.8129112337 0.8667720345
H 0.2454326681 -0.3048195888 1.7536413211
H -2.5212942931 -1.9003563949 -0.7417232203
H 4.2408841804 -0.3740087517 -1.0838374983
H 2.7377295879 -0.5513955742 -2.1619726702
H 2.5574273727 1.1307528027 1.6525283066
H 2.6529701221 -0.6017924467 1.9294000315
H 4.0293418417 0.2448257766 1.2000650214
27
CONF11
C -3.4401005600 0.6371111079 -0.0837263061
C -1.9478691810 0.4989749126 -0.0202898065
C -1.1132186168 1.3641212990 -0.6075635115
C 0.3811068383 1.2492784441 -0.6032163970
C 0.8649485606 -0.1408273338 -0.1506606247
H 0.6306802932 -0.8422820742 -0.9658908446
C 0.0645716866 -0.5582251976 1.0801769027
C -1.4174751888 -0.6783804961 0.7643972399
H -1.9807302206 -0.7520644147 1.7066662204
O -1.6063307985 -1.9241575248 0.0302931988
C 2.3667308150 -0.1597715534 0.0266818405
C 2.9680336416 -0.3725813088 1.2019647992
C 3.1637596861 0.0942255978 -1.2220379301
H -3.8676541227 0.7168950444 0.9236171285
H -3.9035199834 -0.2413319133 -0.5521809241
H -3.7362514499 1.5183661522 -0.6591908947
H -1.5301519519 2.2216973281 -1.1357309077
H 0.7565753139 1.4774327594 -1.6071772732
H 0.8097175200 2.0176344854 0.0597974729
H 0.4169014073 -1.5155273413 1.4790923794
H 0.1864585302 0.1919031952 1.8718131441
H -2.5546891606 -2.0402920224 -0.1112506793
H 4.0524375891 -0.3705442297 1.2777900649
H 2.4124298654 -0.5485630567 2.1172576122
H 2.8364971169 -0.5678136792 -2.0329736453
H 3.0215670247 1.1209409012 -1.5799349387
H 4.2325187171 -0.0589000513 -1.0518648967
