 xtb: 6.7.1 (edcfbbe)
          04032521463D

 15 15  0     0  0            999 V2000
   -2.9289   -0.0000   -0.0080 C   0  0  0  0  0  0  0  0  0  0  0  0
   -2.2393    1.2018   -0.0009 C   0  0  0  0  0  0  0  0  0  0  0  0
   -0.8556    1.2090    0.0134 C   0  0  0  0  0  0  0  0  0  0  0  0
   -0.1706    0.0001    0.0247 C   0  0  0  0  0  0  0  0  0  0  0  0
   -0.8555   -1.2089    0.0134 C   0  0  0  0  0  0  0  0  0  0  0  0
   -2.2392   -1.2018   -0.0009 C   0  0  0  0  0  0  0  0  0  0  0  0
    1.3252    0.0000    0.0082 C   0  0  0  0  0  0  0  0  0  0  0  0
    1.8707    1.0753    0.6085 F   0  0  0  0  0  0  0  0  0  0  0  0
    1.8706   -1.0743    0.6103 F   0  0  0  0  0  0  0  0  0  0  0  0
    1.8329   -0.0011   -1.2507 F   0  0  0  0  0  0  0  0  0  0  0  0
   -4.0072   -0.0001   -0.0195 H   0  0  0  0  0  0  0  0  0  0  0  0
   -2.7756    2.1368   -0.0072 H   0  0  0  0  0  0  0  0  0  0  0  0
   -0.3067    2.1378    0.0212 H   0  0  0  0  0  0  0  0  0  0  0  0
   -0.3065   -2.1376    0.0212 H   0  0  0  0  0  0  0  0  0  0  0  0
   -2.7754   -2.1369   -0.0071 H   0  0  0  0  0  0  0  0  0  0  0  0
  1  2  4  0  0  0  0
  2  3  4  0  0  0  0
  3  4  4  0  0  0  0
  4  5  4  0  0  0  0
  1  6  4  0  0  0  0
  5  6  4  0  0  0  0
  4  7  1  0  0  0  0
  7  8  1  0  0  0  0
  7  9  1  0  0  0  0
  7 10  1  0  0  0  0
  1 11  1  0  0  0  0
  2 12  1  0  0  0  0
  3 13  1  0  0  0  0
  5 14  1  0  0  0  0
  6 15  1  0  0  0  0
M  END
