 xtb: 6.7.1 (edcfbbe)
          04062518003D

 24 24  0     0  0            999 V2000
   -1.9816   -1.2019   -0.3892 C   0  0  0  0  0  0  0  0  0  0  0  0
   -1.2832   -0.4031    0.7235 C   0  0  0  0  0  0  0  0  0  0  0  0
   -1.9732   -0.3680    1.5734 H   0  0  0  0  0  0  0  0  0  0  0  0
   -0.9745    1.0537    0.2940 C   0  0  0  0  0  0  0  0  0  0  0  0
   -1.3747    1.2337   -0.7081 H   0  0  0  0  0  0  0  0  0  0  0  0
    0.5419    1.2767    0.2310 C   0  0  0  0  0  0  0  0  0  0  0  0
    0.9419    1.3661    1.2567 H   0  0  0  0  0  0  0  0  0  0  0  0
    1.2038    0.0631   -0.4316 C   0  0  0  0  0  0  0  0  0  0  0  0
    0.7150   -0.1334   -1.3931 H   0  0  0  0  0  0  0  0  0  0  0  0
    1.0085   -1.1580    0.4792 C   0  0  0  0  0  0  0  0  0  0  0  0
    1.8349   -1.1839    1.2100 H   0  0  0  0  0  0  0  0  0  0  0  0
   -0.1475   -1.0620    1.2750 O   0  0  0  0  0  0  0  0  0  0  0  0
    1.0163   -2.3033   -0.3119 O   0  0  0  0  0  0  0  0  0  0  0  0
    2.5677    0.3627   -0.6064 O   0  0  0  0  0  0  0  0  0  0  0  0
    0.8005    2.4545   -0.4846 O   0  0  0  0  0  0  0  0  0  0  0  0
   -1.6227    1.9840    1.1206 O   0  0  0  0  0  0  0  0  0  0  0  0
   -1.3644   -0.9905   -1.6389 O   0  0  0  0  0  0  0  0  0  0  0  0
   -3.0251   -0.8646   -0.4240 H   0  0  0  0  0  0  0  0  0  0  0  0
   -1.9528   -2.2629   -0.1150 H   0  0  0  0  0  0  0  0  0  0  0  0
    0.9684   -3.0940    0.2468 H   0  0  0  0  0  0  0  0  0  0  0  0
    2.9786   -0.3152   -1.1606 H   0  0  0  0  0  0  0  0  0  0  0  0
    1.7440    2.4610   -0.7133 H   0  0  0  0  0  0  0  0  0  0  0  0
   -1.1851    2.0202    1.9838 H   0  0  0  0  0  0  0  0  0  0  0  0
   -1.8156   -1.5255   -2.3071 H   0  0  0  0  0  0  0  0  0  0  0  0
  1  2  1  0  0  0  0
  2  3  1  0  0  0  0
  2  4  1  0  0  0  0
  4  5  1  0  0  0  0
  4  6  1  0  0  0  0
  6  7  1  0  0  0  0
  6  8  1  0  0  0  0
  8  9  1  0  0  0  0
  8 10  1  0  0  0  0
 10 11  1  0  0  0  0
  2 12  1  0  0  0  0
 10 12  1  0  0  0  0
 10 13  1  0  0  0  0
  8 14  1  0  0  0  0
  6 15  1  0  0  0  0
  4 16  1  0  0  0  0
  1 17  1  0  0  0  0
  1 18  1  0  0  0  0
  1 19  1  0  0  0  0
 13 20  1  0  0  0  0
 14 21  1  0  0  0  0
 15 22  1  0  0  0  0
 16 23  1  0  0  0  0
 17 24  1  0  0  0  0
M  END
