 xtb: 6.7.1 (edcfbbe)
          04032521123D

 17 17  0     0  0            999 V2000
   -1.4655   -0.0008   -0.2411 C   0  0  0  0  0  0  0  0  0  0  0  0
   -0.7256    1.2446    0.2386 C   0  0  0  0  0  0  0  0  0  0  0  0
    0.7256    1.1996   -0.2343 C   0  0  0  0  0  0  0  0  0  0  0  0
    1.3624    0.0005    0.2841 N   0  0  0  0  0  0  0  0  0  0  0  0
    0.7265   -1.1988   -0.2349 C   0  0  0  0  0  0  0  0  0  0  0  0
   -0.7242   -1.2452    0.2392 C   0  0  0  0  0  0  0  0  0  0  0  0
   -1.5079   -0.0012   -1.3336 H   0  0  0  0  0  0  0  0  0  0  0  0
   -2.4891   -0.0012    0.1367 H   0  0  0  0  0  0  0  0  0  0  0  0
   -1.2069    2.1472   -0.1403 H   0  0  0  0  0  0  0  0  0  0  0  0
   -0.7362    1.2748    1.3287 H   0  0  0  0  0  0  0  0  0  0  0  0
    0.7449    1.2329   -1.3404 H   0  0  0  0  0  0  0  0  0  0  0  0
    1.2716    2.0676    0.1425 H   0  0  0  0  0  0  0  0  0  0  0  0
    2.3471    0.0010    0.0396 H   0  0  0  0  0  0  0  0  0  0  0  0
    0.7448   -1.2308   -1.3411 H   0  0  0  0  0  0  0  0  0  0  0  0
    1.2735   -2.0665    0.1405 H   0  0  0  0  0  0  0  0  0  0  0  0
   -1.2048   -2.1486   -0.1386 H   0  0  0  0  0  0  0  0  0  0  0  0
   -0.7340   -1.2745    1.3293 H   0  0  0  0  0  0  0  0  0  0  0  0
  1  2  1  0  0  0  0
  2  3  1  0  0  0  0
  3  4  1  0  0  0  0
  4  5  1  0  0  0  0
  1  6  1  0  0  0  0
  5  6  1  0  0  0  0
  1  7  1  0  0  0  0
  1  8  1  0  0  0  0
  2  9  1  0  0  0  0
  2 10  1  0  0  0  0
  3 11  1  0  0  0  0
  3 12  1  0  0  0  0
  4 13  1  0  0  0  0
  5 14  1  0  0  0  0
  5 15  1  0  0  0  0
  6 16  1  0  0  0  0
  6 17  1  0  0  0  0
M  END
