11
 xtb: 6.7.1 (edcfbbe)
C           -2.91212380981781       -0.05289572420374       -0.07162262643073
O           -1.64821222262089        0.65297263898977       -0.22047836610993
C           -0.55169968177765       -0.04159452593653        0.11611582175813
O           -0.55333004894797       -1.19055646580668        0.50144030905437
C            0.65077801484292        0.85992394524181       -0.04846559283978
Cl           2.20149521222547       -0.02597982002381        0.18010749796459
H           -2.92941748739400       -0.92658656752818       -0.72652502046294
H           -3.67526859314067        0.66450523299343       -0.36848073792406
H           -3.05023989393069       -0.35340854276872        0.96905035085769
H            0.60004347161618        1.65915400418221        0.69596570483320
H            0.64972487238499        1.30377435316626       -1.04594373332928
