 xtb: 6.7.1 (edcfbbe)
          04042516253D

 13 12  0     0  0            999 V2000
    1.0837   -1.4953    0.0222 C   0  0  0  0  0  0  0  0  0  0  0  0
    0.4583   -0.1309    0.0332 C   0  0  0  0  0  0  0  0  0  0  0  0
    1.1875    0.9766   -0.0768 C   0  0  0  0  0  0  0  0  0  0  0  0
   -0.9955   -0.1205    0.1986 C   0  0  0  0  0  0  0  0  0  0  0  0
   -1.8136    0.8632   -0.1526 C   0  0  0  0  0  0  0  0  0  0  0  0
    2.1564   -1.4316   -0.1370 H   0  0  0  0  0  0  0  0  0  0  0  0
    0.6448   -2.1022   -0.7685 H   0  0  0  0  0  0  0  0  0  0  0  0
    0.8987   -1.9982    0.9704 H   0  0  0  0  0  0  0  0  0  0  0  0
    0.7479    1.9577   -0.0394 H   0  0  0  0  0  0  0  0  0  0  0  0
    2.2567    0.9379   -0.1958 H   0  0  0  0  0  0  0  0  0  0  0  0
   -1.4106   -1.0252    0.6253 H   0  0  0  0  0  0  0  0  0  0  0  0
   -2.8769    0.7933   -0.0010 H   0  0  0  0  0  0  0  0  0  0  0  0
   -1.4560    1.7690   -0.6116 H   0  0  0  0  0  0  0  0  0  0  0  0
  1  2  1  0  0  0  0
  2  3  2  0  0  0  0
  2  4  1  0  0  0  0
  4  5  2  0  0  0  0
  1  6  1  0  0  0  0
  1  7  1  0  0  0  0
  1  8  1  0  0  0  0
  3  9  1  0  0  0  0
  3 10  1  0  0  0  0
  4 11  1  0  0  0  0
  5 12  1  0  0  0  0
  5 13  1  0  0  0  0
M  END
