 xtb: 6.7.1 (edcfbbe)
          04052508553D

 20 20  0     0  0            999 V2000
   -3.2419    1.0214   -0.0001 C   0  0  0  0  0  0  0  0  0  0  0  0
   -1.9059    0.3428   -0.0000 C   0  0  0  0  0  0  0  0  0  0  0  0
   -1.8151   -1.0432    0.0014 C   0  0  0  0  0  0  0  0  0  0  0  0
   -0.5800   -1.6588    0.0012 C   0  0  0  0  0  0  0  0  0  0  0  0
    0.6033   -0.9288   -0.0004 C   0  0  0  0  0  0  0  0  0  0  0  0
    0.5267    0.4693   -0.0014 C   0  0  0  0  0  0  0  0  0  0  0  0
   -0.7301    1.0716   -0.0012 C   0  0  0  0  0  0  0  0  0  0  0  0
    1.5696    1.3595   -0.0033 O   0  0  0  0  0  0  0  0  0  0  0  0
    2.9112    0.9085    0.0043 C   0  0  0  0  0  0  0  0  0  0  0  0
    1.8142   -1.5756   -0.0010 O   0  0  0  0  0  0  0  0  0  0  0  0
   -3.8122    0.7305    0.8803 H   0  0  0  0  0  0  0  0  0  0  0  0
   -3.1263    2.1011   -0.0011 H   0  0  0  0  0  0  0  0  0  0  0  0
   -3.8129    0.7289   -0.8793 H   0  0  0  0  0  0  0  0  0  0  0  0
   -2.7116   -1.6436    0.0024 H   0  0  0  0  0  0  0  0  0  0  0  0
   -0.5211   -2.7381    0.0021 H   0  0  0  0  0  0  0  0  0  0  0  0
   -0.7484    2.1507   -0.0022 H   0  0  0  0  0  0  0  0  0  0  0  0
    3.1384    0.3163   -0.8839 H   0  0  0  0  0  0  0  0  0  0  0  0
    3.1298    0.3212    0.8979 H   0  0  0  0  0  0  0  0  0  0  0  0
    3.5097    1.8176    0.0047 H   0  0  0  0  0  0  0  0  0  0  0  0
    1.6696   -2.5335    0.0001 H   0  0  0  0  0  0  0  0  0  0  0  0
  1  2  1  0  0  0  0
  2  3  4  0  0  0  0
  3  4  4  0  0  0  0
  4  5  4  0  0  0  0
  5  6  4  0  0  0  0
  2  7  4  0  0  0  0
  6  7  4  0  0  0  0
  6  8  1  0  0  0  0
  8  9  1  0  0  0  0
  5 10  1  0  0  0  0
  1 11  1  0  0  0  0
  1 12  1  0  0  0  0
  1 13  1  0  0  0  0
  3 14  1  0  0  0  0
  4 15  1  0  0  0  0
  7 16  1  0  0  0  0
  9 17  1  0  0  0  0
  9 18  1  0  0  0  0
  9 19  1  0  0  0  0
 10 20  1  0  0  0  0
M  END
