 xtb: 6.7.1 (edcfbbe)
          04062512123D

 31 31  0     0  0            999 V2000
    3.6830    0.3685    0.0774 C   0  0  0  0  0  0  0  0  0  0  0  0
    2.2138    0.3083   -0.3303 C   0  0  0  0  0  0  0  0  0  0  0  0
    2.1499    0.3775   -1.4226 H   0  0  0  0  0  0  0  0  0  0  0  0
    1.4229    1.4662    0.2761 C   0  0  0  0  0  0  0  0  0  0  0  0
   -0.0468    1.3822   -0.1227 C   0  0  0  0  0  0  0  0  0  0  0  0
   -0.6739    0.0700    0.3530 C   0  0  0  0  0  0  0  0  0  0  0  0
   -0.5316   -0.0105    1.4375 H   0  0  0  0  0  0  0  0  0  0  0  0
    0.1067   -1.1009   -0.2766 C   0  0  0  0  0  0  0  0  0  0  0  0
    0.0256   -1.0470   -1.3733 H   0  0  0  0  0  0  0  0  0  0  0  0
    1.5852   -1.0119    0.1073 C   0  0  0  0  0  0  0  0  0  0  0  0
   -0.3449   -2.3710    0.1671 O   0  0  0  0  0  0  0  0  0  0  0  0
   -2.1931   -0.0113    0.0945 C   0  0  0  0  0  0  0  0  0  0  0  0
   -2.9610    0.9368    1.0169 C   0  0  0  0  0  0  0  0  0  0  0  0
   -2.5848    0.2547   -1.3586 C   0  0  0  0  0  0  0  0  0  0  0  0
    4.1298    1.3049   -0.2480 H   0  0  0  0  0  0  0  0  0  0  0  0
    3.7786    0.2985    1.1586 H   0  0  0  0  0  0  0  0  0  0  0  0
    4.2375   -0.4529   -0.3697 H   0  0  0  0  0  0  0  0  0  0  0  0
    1.5099    1.4299    1.3642 H   0  0  0  0  0  0  0  0  0  0  0  0
    1.8416    2.4161   -0.0624 H   0  0  0  0  0  0  0  0  0  0  0  0
   -0.5864    2.2254    0.3087 H   0  0  0  0  0  0  0  0  0  0  0  0
   -0.1218    1.4487   -1.2094 H   0  0  0  0  0  0  0  0  0  0  0  0
    1.6607   -1.1226    1.1910 H   0  0  0  0  0  0  0  0  0  0  0  0
    2.1090   -1.8557   -0.3461 H   0  0  0  0  0  0  0  0  0  0  0  0
   -1.2134   -2.5569   -0.2114 H   0  0  0  0  0  0  0  0  0  0  0  0
   -2.5074   -1.0289    0.3553 H   0  0  0  0  0  0  0  0  0  0  0  0
   -2.7428    1.9748    0.7799 H   0  0  0  0  0  0  0  0  0  0  0  0
   -2.7005    0.7570    2.0572 H   0  0  0  0  0  0  0  0  0  0  0  0
   -4.0313    0.7828    0.9003 H   0  0  0  0  0  0  0  0  0  0  0  0
   -2.4197    1.2974   -1.6165 H   0  0  0  0  0  0  0  0  0  0  0  0
   -3.6409    0.0361   -1.5002 H   0  0  0  0  0  0  0  0  0  0  0  0
   -2.0154   -0.3657   -2.0459 H   0  0  0  0  0  0  0  0  0  0  0  0
  1  2  1  0  0  0  0
  2  3  1  0  0  0  0
  2  4  1  0  0  0  0
  4  5  1  0  0  0  0
  5  6  1  0  0  0  0
  6  7  1  0  0  0  0
  6  8  1  0  0  0  0
  8  9  1  0  0  0  0
  2 10  1  0  0  0  0
  8 10  1  0  0  0  0
  8 11  1  0  0  0  0
  6 12  1  0  0  0  0
 12 13  1  0  0  0  0
 12 14  1  0  0  0  0
  1 15  1  0  0  0  0
  1 16  1  0  0  0  0
  1 17  1  0  0  0  0
  4 18  1  0  0  0  0
  4 19  1  0  0  0  0
  5 20  1  0  0  0  0
  5 21  1  0  0  0  0
 10 22  1  0  0  0  0
 10 23  1  0  0  0  0
 11 24  1  0  0  0  0
 12 25  1  0  0  0  0
 13 26  1  0  0  0  0
 13 27  1  0  0  0  0
 13 28  1  0  0  0  0
 14 29  1  0  0  0  0
 14 30  1  0  0  0  0
 14 31  1  0  0  0  0
M  END
