 xtb: 6.7.1 (edcfbbe)
          04062519153D

 24 24  0     0  0            999 V2000
   -2.5631   -0.8680    0.2754 C   0  0  0  0  0  0  0  0  0  0  0  0
   -1.1349   -0.4283    0.6260 C   0  0  0  0  0  0  0  0  0  0  0  0
   -1.0351   -0.3528    1.7194 H   0  0  0  0  0  0  0  0  0  0  0  0
   -0.8212    0.9477    0.0240 C   0  0  0  0  0  0  0  0  0  0  0  0
   -1.0518    0.9283   -1.0516 H   0  0  0  0  0  0  0  0  0  0  0  0
    0.6662    1.2828    0.1961 C   0  0  0  0  0  0  0  0  0  0  0  0
    0.8756    1.4239    1.2692 H   0  0  0  0  0  0  0  0  0  0  0  0
    1.5376    0.1324   -0.3127 C   0  0  0  0  0  0  0  0  0  0  0  0
    1.3929    0.0176   -1.3972 H   0  0  0  0  0  0  0  0  0  0  0  0
    1.0970   -1.1742    0.3642 C   0  0  0  0  0  0  0  0  0  0  0  0
    1.2675   -1.0818    1.4582 H   0  0  0  0  0  0  0  0  0  0  0  0
   -0.2663   -1.4288    0.1272 O   0  0  0  0  0  0  0  0  0  0  0  0
    1.8363   -2.2076   -0.1753 O   0  0  0  0  0  0  0  0  0  0  0  0
    2.8749    0.4407   -0.0154 O   0  0  0  0  0  0  0  0  0  0  0  0
    0.9183    2.4757   -0.5041 O   0  0  0  0  0  0  0  0  0  0  0  0
   -1.6271    1.8880    0.6858 O   0  0  0  0  0  0  0  0  0  0  0  0
   -2.7380   -1.0521   -1.1040 O   0  0  0  0  0  0  0  0  0  0  0  0
   -3.2530   -0.0802    0.5800 H   0  0  0  0  0  0  0  0  0  0  0  0
   -2.7917   -1.7913    0.8211 H   0  0  0  0  0  0  0  0  0  0  0  0
    1.4683   -3.0603    0.1043 H   0  0  0  0  0  0  0  0  0  0  0  0
    3.4376   -0.2994   -0.2874 H   0  0  0  0  0  0  0  0  0  0  0  0
    1.8701    2.6536   -0.4769 H   0  0  0  0  0  0  0  0  0  0  0  0
   -1.4142    2.7672    0.3375 H   0  0  0  0  0  0  0  0  0  0  0  0
   -2.1020   -1.7192   -1.4024 H   0  0  0  0  0  0  0  0  0  0  0  0
  1  2  1  0  0  0  0
  2  3  1  0  0  0  0
  2  4  1  0  0  0  0
  4  5  1  0  0  0  0
  4  6  1  0  0  0  0
  6  7  1  0  0  0  0
  6  8  1  0  0  0  0
  8  9  1  0  0  0  0
  8 10  1  0  0  0  0
 10 11  1  0  0  0  0
  2 12  1  0  0  0  0
 10 12  1  0  0  0  0
 10 13  1  0  0  0  0
  8 14  1  0  0  0  0
  6 15  1  0  0  0  0
  4 16  1  0  0  0  0
  1 17  1  0  0  0  0
  1 18  1  0  0  0  0
  1 19  1  0  0  0  0
 13 20  1  0  0  0  0
 14 21  1  0  0  0  0
 15 22  1  0  0  0  0
 16 23  1  0  0  0  0
 17 24  1  0  0  0  0
M  END
