 xtb: 6.7.1 (edcfbbe)
          04062511443D

 31 31  0     0  0            999 V2000
    3.7245    0.1672    0.0816 C   0  0  0  0  0  0  0  0  0  0  0  0
    2.2552    0.3167   -0.3022 C   0  0  0  0  0  0  0  0  0  0  0  0
    2.1926    0.5216   -1.3773 H   0  0  0  0  0  0  0  0  0  0  0  0
    1.6013    1.4728    0.4519 C   0  0  0  0  0  0  0  0  0  0  0  0
    0.1257    1.5936    0.0870 C   0  0  0  0  0  0  0  0  0  0  0  0
   -0.6457    0.3056    0.3970 C   0  0  0  0  0  0  0  0  0  0  0  0
   -0.5181    0.0781    1.4615 H   0  0  0  0  0  0  0  0  0  0  0  0
    0.0063   -0.8474   -0.3898 C   0  0  0  0  0  0  0  0  0  0  0  0
   -0.0565   -0.6307   -1.4657 H   0  0  0  0  0  0  0  0  0  0  0  0
    1.4843   -0.9672   -0.0093 C   0  0  0  0  0  0  0  0  0  0  0  0
   -0.5784   -2.1146   -0.1259 O   0  0  0  0  0  0  0  0  0  0  0  0
   -2.1590    0.5064    0.1498 C   0  0  0  0  0  0  0  0  0  0  0  0
   -2.5706    0.3593   -1.3151 C   0  0  0  0  0  0  0  0  0  0  0  0
   -3.0014   -0.4039    1.0462 C   0  0  0  0  0  0  0  0  0  0  0  0
    4.2700    1.0815   -0.1391 H   0  0  0  0  0  0  0  0  0  0  0  0
    3.8182   -0.0419    1.1448 H   0  0  0  0  0  0  0  0  0  0  0  0
    4.1820   -0.6502   -0.4703 H   0  0  0  0  0  0  0  0  0  0  0  0
    1.6965    1.2988    1.5260 H   0  0  0  0  0  0  0  0  0  0  0  0
    2.1151    2.4069    0.2165 H   0  0  0  0  0  0  0  0  0  0  0  0
   -0.3177    2.4208    0.6447 H   0  0  0  0  0  0  0  0  0  0  0  0
    0.0357    1.8226   -0.9773 H   0  0  0  0  0  0  0  0  0  0  0  0
    1.5458   -1.2088    1.0538 H   0  0  0  0  0  0  0  0  0  0  0  0
    1.9119   -1.8061   -0.5621 H   0  0  0  0  0  0  0  0  0  0  0  0
   -1.3972   -2.1994   -0.6296 H   0  0  0  0  0  0  0  0  0  0  0  0
   -2.3843    1.5395    0.4425 H   0  0  0  0  0  0  0  0  0  0  0  0
   -2.5044   -0.6721   -1.6522 H   0  0  0  0  0  0  0  0  0  0  0  0
   -1.9460    0.9756   -1.9569 H   0  0  0  0  0  0  0  0  0  0  0  0
   -3.6021    0.6823   -1.4379 H   0  0  0  0  0  0  0  0  0  0  0  0
   -2.8415   -0.1519    2.0923 H   0  0  0  0  0  0  0  0  0  0  0  0
   -2.7399   -1.4493    0.9118 H   0  0  0  0  0  0  0  0  0  0  0  0
   -4.0585   -0.2774    0.8232 H   0  0  0  0  0  0  0  0  0  0  0  0
  1  2  1  0  0  0  0
  2  3  1  0  0  0  0
  2  4  1  0  0  0  0
  4  5  1  0  0  0  0
  5  6  1  0  0  0  0
  6  7  1  0  0  0  0
  6  8  1  0  0  0  0
  8  9  1  0  0  0  0
  2 10  1  0  0  0  0
  8 10  1  0  0  0  0
  8 11  1  0  0  0  0
  6 12  1  0  0  0  0
 12 13  1  0  0  0  0
 12 14  1  0  0  0  0
  1 15  1  0  0  0  0
  1 16  1  0  0  0  0
  1 17  1  0  0  0  0
  4 18  1  0  0  0  0
  4 19  1  0  0  0  0
  5 20  1  0  0  0  0
  5 21  1  0  0  0  0
 10 22  1  0  0  0  0
 10 23  1  0  0  0  0
 11 24  1  0  0  0  0
 12 25  1  0  0  0  0
 13 26  1  0  0  0  0
 13 27  1  0  0  0  0
 13 28  1  0  0  0  0
 14 29  1  0  0  0  0
 14 30  1  0  0  0  0
 14 31  1  0  0  0  0
M  END
