 xtb: 6.7.1 (edcfbbe)
          04052500003D

 17 17  0     0  0            999 V2000
   -1.0850   -1.8946    0.0000 C   0  0  0  0  0  0  0  0  0  0  0  0
   -0.0104   -0.8618    0.0000 C   0  0  0  0  0  0  0  0  0  0  0  0
    1.3253   -1.2462   -0.0000 C   0  0  0  0  0  0  0  0  0  0  0  0
    2.3468   -0.3138    0.0000 C   0  0  0  0  0  0  0  0  0  0  0  0
    2.0535    1.0434   -0.0000 C   0  0  0  0  0  0  0  0  0  0  0  0
    0.7372    1.4497    0.0000 C   0  0  0  0  0  0  0  0  0  0  0  0
   -0.3070    0.5156   -0.0000 C   0  0  0  0  0  0  0  0  0  0  0  0
   -1.6666    1.0314   -0.0000 C   0  0  0  0  0  0  0  0  0  0  0  0
   -2.7025    0.3947    0.0000 O   0  0  0  0  0  0  0  0  0  0  0  0
   -1.7266   -1.7735    0.8717 H   0  0  0  0  0  0  0  0  0  0  0  0
   -1.7255   -1.7745   -0.8726 H   0  0  0  0  0  0  0  0  0  0  0  0
   -0.6602   -2.8944    0.0008 H   0  0  0  0  0  0  0  0  0  0  0  0
    1.5655   -2.2988   -0.0002 H   0  0  0  0  0  0  0  0  0  0  0  0
    3.3743   -0.6435   -0.0001 H   0  0  0  0  0  0  0  0  0  0  0  0
    2.8483    1.7723    0.0000 H   0  0  0  0  0  0  0  0  0  0  0  0
    0.4938    2.5020    0.0002 H   0  0  0  0  0  0  0  0  0  0  0  0
   -1.7129    2.1384   -0.0000 H   0  0  0  0  0  0  0  0  0  0  0  0
  1  2  1  0  0  0  0
  2  3  4  0  0  0  0
  3  4  4  0  0  0  0
  4  5  4  0  0  0  0
  5  6  4  0  0  0  0
  2  7  4  0  0  0  0
  6  7  4  0  0  0  0
  7  8  1  0  0  0  0
  8  9  2  0  0  0  0
  1 10  1  0  0  0  0
  1 11  1  0  0  0  0
  1 12  1  0  0  0  0
  3 13  1  0  0  0  0
  4 14  1  0  0  0  0
  5 15  1  0  0  0  0
  6 16  1  0  0  0  0
  8 17  1  0  0  0  0
M  END
