24
 xtb: 6.7.1 (edcfbbe)
C           -2.55240655654531       -0.93718112608400        0.33523094883238
C           -1.13059372770354       -0.47322933550019        0.58866965231562
H           -0.96696943543060       -0.44462175791734        1.67904410110200
C           -0.81790079618628        0.90485479284832       -0.00368606826043
H           -1.02421859654154        0.89274012045495       -1.08223999341850
C            0.64826145187406        1.25479616005542        0.21694026921421
H            0.82138029825219        1.36879828532531        1.30010608979317
C            1.54648592573506        0.14979173723728       -0.30623224845291
H            1.45045473980141        0.08398592503231       -1.40118594612257
C            1.11883629521169       -1.18946504703693        0.29154471044480
H            1.25288835854500       -1.18611196608979        1.38609795890101
O           -0.25575816590845       -1.44640271474292       -0.01353483998450
O            1.88886116094499       -2.19581688719239       -0.31136743314416
O            2.88987273280464        0.46084816509791        0.06770936313941
O            0.99701877331991        2.46588849098090       -0.46212056254984
O           -1.58522579471108        1.92932157208985        0.64247428724380
O           -2.89584864150851       -0.96440086286012       -1.05511632961979
H           -3.24716400035852       -0.24425186670600        0.81873241938330
H           -2.68684594655240       -1.92877839923642        0.78821446938672
H            1.87961022406429       -2.97255631907153        0.26463613528121
H            3.46244522653256       -0.20291028059953       -0.33986292302082
H            0.41547173376904        3.15666792249076       -0.11599386719501
H           -2.45445882101232        1.96184552452620        0.22337799074246
H           -2.31885745518657       -1.61144768727452       -1.48203243169277
