14
 xtb: 6.7.1 (edcfbbe)
C           -2.00357290669862       -1.05562866269108       -0.47388220952680
C           -1.45144909951958        0.06101866188430        0.41546388957126
C           -0.03156188023516        0.43371790327725        0.09695408343591
O            0.36758561601906        1.56863759017827       -0.10986004825447
O            0.78160902031251       -0.63984385964178        0.07460247295926
C            2.17711638598861       -0.37236966819897       -0.21645942556865
H           -1.94091237885190       -0.77931504518460       -1.53058838436669
H           -1.45771763525383       -1.99025996800825       -0.32788342903466
H           -3.05407878824708       -1.23309203731110       -0.23017040004342
H           -1.47654647871818       -0.25214795840917        1.46670364467713
H           -2.05060180239486        0.96923276351375        0.32462442728422
H            2.66891936146141       -1.34385403646870       -0.18924575997429
H            2.60097653726941        0.29049054402491        0.54143517290159
H            2.27600152124532        0.07719197551447       -1.20700496790285
