 xtb: 6.7.1 (edcfbbe)
          04062518003D

 24 24  0     0  0            999 V2000
   -2.1911   -0.9676   -0.0948 C   0  0  0  0  0  0  0  0  0  0  0  0
   -1.0909   -0.3754    0.8135 C   0  0  0  0  0  0  0  0  0  0  0  0
   -1.5146   -0.3561    1.8255 H   0  0  0  0  0  0  0  0  0  0  0  0
   -0.7337    1.0863    0.4600 C   0  0  0  0  0  0  0  0  0  0  0  0
   -1.5992    1.5206   -0.0541 H   0  0  0  0  0  0  0  0  0  0  0  0
    0.5090    1.2456   -0.4400 C   0  0  0  0  0  0  0  0  0  0  0  0
    0.8517    2.2854   -0.3148 H   0  0  0  0  0  0  0  0  0  0  0  0
    1.6360    0.3161    0.0380 C   0  0  0  0  0  0  0  0  0  0  0  0
    2.4611    0.3713   -0.6865 H   0  0  0  0  0  0  0  0  0  0  0  0
    1.1079   -1.1301    0.0618 C   0  0  0  0  0  0  0  0  0  0  0  0
    1.8534   -1.8104    0.4963 H   0  0  0  0  0  0  0  0  0  0  0  0
    0.0258   -1.2555    0.9510 O   0  0  0  0  0  0  0  0  0  0  0  0
    0.8355   -1.5963   -1.2220 O   0  0  0  0  0  0  0  0  0  0  0  0
    2.0351    0.7519    1.3114 O   0  0  0  0  0  0  0  0  0  0  0  0
    0.2812    0.9665   -1.7996 O   0  0  0  0  0  0  0  0  0  0  0  0
   -0.5713    1.8604    1.6249 O   0  0  0  0  0  0  0  0  0  0  0  0
   -1.9391   -0.8905   -1.4731 O   0  0  0  0  0  0  0  0  0  0  0  0
   -3.1094   -0.4015    0.0763 H   0  0  0  0  0  0  0  0  0  0  0  0
   -2.3510   -2.0065    0.2169 H   0  0  0  0  0  0  0  0  0  0  0  0
    0.6100   -0.8288   -1.7908 H   0  0  0  0  0  0  0  0  0  0  0  0
    2.7726    0.2151    1.6343 H   0  0  0  0  0  0  0  0  0  0  0  0
   -0.5081    1.4319   -2.1122 H   0  0  0  0  0  0  0  0  0  0  0  0
    0.2653    1.6076    2.0499 H   0  0  0  0  0  0  0  0  0  0  0  0
   -1.2311   -1.5181   -1.6933 H   0  0  0  0  0  0  0  0  0  0  0  0
  1  2  1  0  0  0  0
  2  3  1  0  0  0  0
  2  4  1  0  0  0  0
  4  5  1  0  0  0  0
  4  6  1  0  0  0  0
  6  7  1  0  0  0  0
  6  8  1  0  0  0  0
  8  9  1  0  0  0  0
  8 10  1  0  0  0  0
 10 11  1  0  0  0  0
  2 12  1  0  0  0  0
 10 12  1  0  0  0  0
 10 13  1  0  0  0  0
  8 14  1  0  0  0  0
  6 15  1  0  0  0  0
  4 16  1  0  0  0  0
  1 17  1  0  0  0  0
  1 18  1  0  0  0  0
  1 19  1  0  0  0  0
 13 20  1  0  0  0  0
 14 21  1  0  0  0  0
 15 22  1  0  0  0  0
 16 23  1  0  0  0  0
 17 24  1  0  0  0  0
M  END
