 xtb: 6.7.1 (edcfbbe)
          04032521553D

 17 17  0     0  0            999 V2000
    2.8855   -0.0705   -0.0003 C   0  0  0  0  0  0  0  0  0  0  0  0
    1.3911   -0.0106   -0.0038 C   0  0  0  0  0  0  0  0  0  0  0  0
    0.7137    1.2024    0.1064 C   0  0  0  0  0  0  0  0  0  0  0  0
   -0.6667    1.2140    0.1020 C   0  0  0  0  0  0  0  0  0  0  0  0
   -1.3556    0.0067   -0.0131 C   0  0  0  0  0  0  0  0  0  0  0  0
   -0.7156   -1.1514   -0.1191 N   0  0  0  0  0  0  0  0  0  0  0  0
    0.6086   -1.1517   -0.1140 C   0  0  0  0  0  0  0  0  0  0  0  0
   -2.8516   -0.0330   -0.0225 C   0  0  0  0  0  0  0  0  0  0  0  0
    3.2748    0.3237    0.9370 H   0  0  0  0  0  0  0  0  0  0  0  0
    3.2299   -1.0940   -0.1201 H   0  0  0  0  0  0  0  0  0  0  0  0
    3.2888    0.5346   -0.8105 H   0  0  0  0  0  0  0  0  0  0  0  0
    1.2704    2.1247    0.1944 H   0  0  0  0  0  0  0  0  0  0  0  0
   -1.2139    2.1405    0.1861 H   0  0  0  0  0  0  0  0  0  0  0  0
    1.0663   -2.1294   -0.2039 H   0  0  0  0  0  0  0  0  0  0  0  0
   -3.1892   -1.0609   -0.1061 H   0  0  0  0  0  0  0  0  0  0  0  0
   -3.2441    0.4026    0.8940 H   0  0  0  0  0  0  0  0  0  0  0  0
   -3.2362    0.5417   -0.8627 H   0  0  0  0  0  0  0  0  0  0  0  0
  1  2  1  0  0  0  0
  2  3  4  0  0  0  0
  3  4  4  0  0  0  0
  4  5  4  0  0  0  0
  5  6  4  0  0  0  0
  2  7  4  0  0  0  0
  6  7  4  0  0  0  0
  5  8  1  0  0  0  0
  1  9  1  0  0  0  0
  1 10  1  0  0  0  0
  1 11  1  0  0  0  0
  3 12  1  0  0  0  0
  4 13  1  0  0  0  0
  7 14  1  0  0  0  0
  8 15  1  0  0  0  0
  8 16  1  0  0  0  0
  8 17  1  0  0  0  0
M  END
