 xtb: 6.7.1 (edcfbbe)
          04062518003D

 24 24  0     0  0            999 V2000
   -1.6568   -1.3543   -0.5974 C   0  0  0  0  0  0  0  0  0  0  0  0
   -1.1340   -0.5037    0.5697 C   0  0  0  0  0  0  0  0  0  0  0  0
   -1.9043   -0.5082    1.3488 H   0  0  0  0  0  0  0  0  0  0  0  0
   -0.8742    0.9596    0.1466 C   0  0  0  0  0  0  0  0  0  0  0  0
   -1.2212    1.1065   -0.8812 H   0  0  0  0  0  0  0  0  0  0  0  0
    0.6287    1.2727    0.2128 C   0  0  0  0  0  0  0  0  0  0  0  0
    0.9287    1.3832    1.2685 H   0  0  0  0  0  0  0  0  0  0  0  0
    1.4376    0.1202   -0.3877 C   0  0  0  0  0  0  0  0  0  0  0  0
    1.1179   -0.0432   -1.4274 H   0  0  0  0  0  0  0  0  0  0  0  0
    1.1764   -1.1600    0.4213 C   0  0  0  0  0  0  0  0  0  0  0  0
    1.9846   -1.2581    1.1601 H   0  0  0  0  0  0  0  0  0  0  0  0
    0.0022   -1.0856    1.1971 O   0  0  0  0  0  0  0  0  0  0  0  0
    1.1603   -2.2400   -0.4551 O   0  0  0  0  0  0  0  0  0  0  0  0
    2.8153    0.3794   -0.3404 O   0  0  0  0  0  0  0  0  0  0  0  0
    0.9490    2.4408   -0.5027 O   0  0  0  0  0  0  0  0  0  0  0  0
   -1.6037    1.8920    0.9062 O   0  0  0  0  0  0  0  0  0  0  0  0
   -2.8837   -0.8038   -1.0152 O   0  0  0  0  0  0  0  0  0  0  0  0
   -1.7869   -2.3821   -0.2374 H   0  0  0  0  0  0  0  0  0  0  0  0
   -0.9252   -1.3562   -1.4141 H   0  0  0  0  0  0  0  0  0  0  0  0
    1.2365   -3.0736    0.0338 H   0  0  0  0  0  0  0  0  0  0  0  0
    2.9694    1.2522   -0.7364 H   0  0  0  0  0  0  0  0  0  0  0  0
    0.3276    3.1405   -0.2523 H   0  0  0  0  0  0  0  0  0  0  0  0
   -1.4238    1.7621    1.8491 H   0  0  0  0  0  0  0  0  0  0  0  0
   -3.2486   -1.3454   -1.7291 H   0  0  0  0  0  0  0  0  0  0  0  0
  1  2  1  0  0  0  0
  2  3  1  0  0  0  0
  2  4  1  0  0  0  0
  4  5  1  0  0  0  0
  4  6  1  0  0  0  0
  6  7  1  0  0  0  0
  6  8  1  0  0  0  0
  8  9  1  0  0  0  0
  8 10  1  0  0  0  0
 10 11  1  0  0  0  0
  2 12  1  0  0  0  0
 10 12  1  0  0  0  0
 10 13  1  0  0  0  0
  8 14  1  0  0  0  0
  6 15  1  0  0  0  0
  4 16  1  0  0  0  0
  1 17  1  0  0  0  0
  1 18  1  0  0  0  0
  1 19  1  0  0  0  0
 13 20  1  0  0  0  0
 14 21  1  0  0  0  0
 15 22  1  0  0  0  0
 16 23  1  0  0  0  0
 17 24  1  0  0  0  0
M  END
