27
 xtb: 6.7.1 (edcfbbe)
C            3.24019846970354       -0.04626556942640        1.00615411551420
C            1.92144395775326       -0.08655737717164        0.31639826922082
C            1.34378317631073        1.02741129315118       -0.19096877978609
C            0.03540098142692        1.01581570316768       -0.82439954151800
O           -0.40318903018908        2.02182629400905       -1.40577952056824
C           -0.78393808744494       -0.25140387191753       -0.70349501312606
H           -1.51879594767086       -0.24870889203348       -1.51812436355575
C            0.16266324193070       -1.44890331847569       -0.85647157750591
C            1.26189140385970       -1.42633991645019        0.20116084936865
C           -1.57310728937832       -0.24266570136650        0.63844652255159
C           -2.53951704498266        0.94092215449386        0.70614984243813
C           -2.33974265601312       -1.55267108617355        0.82750573806497
H            3.62176174094790        0.97160035930387        1.11088900833741
H            3.97112485841187       -0.64955059932001        0.45352421324506
H            3.15596379619537       -0.50424701284954        1.99970416533180
H            1.85489483312418        1.98635728748410       -0.13959963970376
H           -0.39311931260905       -2.38923278569135       -0.81658023494336
H            0.62818540833290       -1.39677286183717       -1.84861927108433
H            0.86042752481694       -1.68960305788349        1.19177928915721
H            2.02724678384163       -2.18138776612742       -0.01382045152708
H           -0.85129211037801       -0.14217411357957        1.46022980280382
H           -3.25855743023309        0.90124432186022       -0.12095048900348
H           -2.02267777914893        1.90352620081990        0.65897757877263
H           -3.10426801647490        0.91241260355987        1.64360212602800
H           -2.95927582252747       -1.49572411602577        1.72872297989283
H           -1.67450617882730       -2.41328489750363        0.93867420108356
H           -3.00334033284259       -1.74039482534252       -0.02551413185434
