 xtb: 6.7.1 (edcfbbe)
          04042520213D

 15 14  0     0  0            999 V2000
    1.7164    0.4461    0.6064 C   0  0  0  0  0  0  0  0  0  0  0  0
    0.8969    0.3470   -0.6768 C   0  0  0  0  0  0  0  0  0  0  0  0
   -0.5663   -0.0847   -0.4730 C   0  0  0  0  0  0  0  0  0  0  0  0
   -1.0518   -0.0945   -1.4569 H   0  0  0  0  0  0  0  0  0  0  0  0
   -1.3378    0.8579    0.4500 C   0  0  0  0  0  0  0  0  0  0  0  0
   -0.6643   -1.4297   -0.0351 O   0  0  0  0  0  0  0  0  0  0  0  0
    1.7314   -0.5042    1.1349 H   0  0  0  0  0  0  0  0  0  0  0  0
    1.3213    1.2129    1.2670 H   0  0  0  0  0  0  0  0  0  0  0  0
    2.7429    0.7076    0.3619 H   0  0  0  0  0  0  0  0  0  0  0  0
    1.3643   -0.3808   -1.3439 H   0  0  0  0  0  0  0  0  0  0  0  0
    0.8947    1.3133   -1.1830 H   0  0  0  0  0  0  0  0  0  0  0  0
   -0.9297    0.8314    1.4571 H   0  0  0  0  0  0  0  0  0  0  0  0
   -1.2828    1.8744    0.0722 H   0  0  0  0  0  0  0  0  0  0  0  0
   -2.3808    0.5539    0.4935 H   0  0  0  0  0  0  0  0  0  0  0  0
   -0.3173   -1.4852    0.8662 H   0  0  0  0  0  0  0  0  0  0  0  0
  1  2  1  0  0  0  0
  2  3  1  0  0  0  0
  3  4  1  0  0  0  0
  3  5  1  0  0  0  0
  3  6  1  0  0  0  0
  1  7  1  0  0  0  0
  1  8  1  0  0  0  0
  1  9  1  0  0  0  0
  2 10  1  0  0  0  0
  2 11  1  0  0  0  0
  5 12  1  0  0  0  0
  5 13  1  0  0  0  0
  5 14  1  0  0  0  0
  6 15  1  0  0  0  0
M  END
