 xtb: 6.7.1 (edcfbbe)
          04062518003D

 24 24  0     0  0            999 V2000
   -2.2140   -0.6189   -0.7344 C   0  0  0  0  0  0  0  0  0  0  0  0
   -1.3884   -0.4998    0.5667 C   0  0  0  0  0  0  0  0  0  0  0  0
   -2.0703   -0.7803    1.3828 H   0  0  0  0  0  0  0  0  0  0  0  0
   -0.8802    0.9244    0.8417 C   0  0  0  0  0  0  0  0  0  0  0  0
   -1.6942    1.6299    0.6196 H   0  0  0  0  0  0  0  0  0  0  0  0
    0.3153    1.3224   -0.0416 C   0  0  0  0  0  0  0  0  0  0  0  0
    0.9498    1.9756    0.5753 H   0  0  0  0  0  0  0  0  0  0  0  0
    1.1498    0.0957   -0.4638 C   0  0  0  0  0  0  0  0  0  0  0  0
    0.7721   -0.2842   -1.4211 H   0  0  0  0  0  0  0  0  0  0  0  0
    0.9794   -1.0083    0.5952 C   0  0  0  0  0  0  0  0  0  0  0  0
    1.2514   -0.6106    1.5878 H   0  0  0  0  0  0  0  0  0  0  0  0
   -0.3503   -1.4782    0.5989 O   0  0  0  0  0  0  0  0  0  0  0  0
    1.8107   -2.0892    0.3835 O   0  0  0  0  0  0  0  0  0  0  0  0
    2.4969    0.4305   -0.6806 O   0  0  0  0  0  0  0  0  0  0  0  0
   -0.1768    2.0366   -1.1530 O   0  0  0  0  0  0  0  0  0  0  0  0
   -0.4578    1.0703    2.1791 O   0  0  0  0  0  0  0  0  0  0  0  0
   -1.5499   -0.2628   -1.9164 O   0  0  0  0  0  0  0  0  0  0  0  0
   -3.1269   -0.0226   -0.6074 H   0  0  0  0  0  0  0  0  0  0  0  0
   -2.4889   -1.6690   -0.8553 H   0  0  0  0  0  0  0  0  0  0  0  0
    1.5238   -2.5702   -0.4089 H   0  0  0  0  0  0  0  0  0  0  0  0
    2.9783    0.4394    0.1585 H   0  0  0  0  0  0  0  0  0  0  0  0
    0.5711    2.3347   -1.6917 H   0  0  0  0  0  0  0  0  0  0  0  0
   -1.2079    0.9534    2.7801 H   0  0  0  0  0  0  0  0  0  0  0  0
   -1.3117    0.6833   -1.8805 H   0  0  0  0  0  0  0  0  0  0  0  0
  1  2  1  0  0  0  0
  2  3  1  0  0  0  0
  2  4  1  0  0  0  0
  4  5  1  0  0  0  0
  4  6  1  0  0  0  0
  6  7  1  0  0  0  0
  6  8  1  0  0  0  0
  8  9  1  0  0  0  0
  8 10  1  0  0  0  0
 10 11  1  0  0  0  0
  2 12  1  0  0  0  0
 10 12  1  0  0  0  0
 10 13  1  0  0  0  0
  8 14  1  0  0  0  0
  6 15  1  0  0  0  0
  4 16  1  0  0  0  0
  1 17  1  0  0  0  0
  1 18  1  0  0  0  0
  1 19  1  0  0  0  0
 13 20  1  0  0  0  0
 14 21  1  0  0  0  0
 15 22  1  0  0  0  0
 16 23  1  0  0  0  0
 17 24  1  0  0  0  0
M  END
