23
 xtb: 6.7.1 (edcfbbe)
C            4.45370214369274       -0.36915365154781       -0.07757437552498
C            3.72592934204005       -0.51652336625909       -1.25617550082146
C            2.36079099991324       -0.24585672569080       -1.27291512980179
C            1.74351544495136        0.17528360284792       -0.10146615540068
C            2.45475526813082        0.32519236111757        1.08273877257800
C            3.81959306577417        0.05205818852228        1.08895451073379
N            0.32879552005576        0.45696134102204       -0.11349273923565
C           -0.56208475763568       -0.59941078353054        0.15241751650330
O           -0.12159832451018       -1.73701233296193        0.39001804748592
C           -1.93234860692996       -0.21292598650492        0.11529596854699
C           -2.32934444624097        1.08578030643438       -0.15577283816080
C           -1.27603064489981        2.02603392311827       -0.39576107302544
N           -0.01124615464839        1.72436857907572       -0.37555773743816
N           -3.60419597905738        1.50282882240119       -0.20407738670007
Cl          -3.12400782732901       -1.44329855123753        0.42936586138736
H            5.51733329257589       -0.58338642808936       -0.06818673368883
H            4.21994488008922       -0.84322595696728       -2.16520260892681
H            1.77875618849105       -0.35929854572349       -2.18147970996893
H            1.94491969562560        0.64896395412940        1.98411556600222
H            4.38627691276684        0.16693852054945        2.00693715337205
H           -1.52026596333445        3.06174531090094       -0.61168000400217
H           -3.80827385522498        2.46784054006356       -0.40846022020557
H           -4.37051198664801        0.86819814499026       -0.04800812935685
