 xtb: 6.7.1 (edcfbbe)
          04032521363D

 13 13  0     0  0            999 V2000
   -1.9500    0.6247    0.0000 C   0  0  0  0  0  0  0  0  0  0  0  0
   -1.9000   -0.7582    0.0000 C   0  0  0  0  0  0  0  0  0  0  0  0
   -0.6723   -1.3995    0.0000 C   0  0  0  0  0  0  0  0  0  0  0  0
    0.4801   -0.6436    0.0001 C   0  0  0  0  0  0  0  0  0  0  0  0
    0.4590    0.7508    0.0002 C   0  0  0  0  0  0  0  0  0  0  0  0
   -0.7857    1.3723   -0.0000 C   0  0  0  0  0  0  0  0  0  0  0  0
    1.6307    1.4292   -0.0001 O   0  0  0  0  0  0  0  0  0  0  0  0
    1.6893   -1.2840   -0.0000 F   0  0  0  0  0  0  0  0  0  0  0  0
   -2.9022    1.1303   -0.0002 H   0  0  0  0  0  0  0  0  0  0  0  0
   -2.8069   -1.3396    0.0001 H   0  0  0  0  0  0  0  0  0  0  0  0
   -0.5921   -2.4743    0.0002 H   0  0  0  0  0  0  0  0  0  0  0  0
   -0.8357    2.4504   -0.0009 H   0  0  0  0  0  0  0  0  0  0  0  0
    1.4724    2.3866   -0.0005 H   0  0  0  0  0  0  0  0  0  0  0  0
  1  2  4  0  0  0  0
  2  3  4  0  0  0  0
  3  4  4  0  0  0  0
  4  5  4  0  0  0  0
  1  6  4  0  0  0  0
  5  6  4  0  0  0  0
  5  7  1  0  0  0  0
  4  8  1  0  0  0  0
  1  9  1  0  0  0  0
  2 10  1  0  0  0  0
  3 11  1  0  0  0  0
  6 12  1  0  0  0  0
  7 13  1  0  0  0  0
M  END
