16
CONF1
C 2.0573144500 0.0256187596 -0.3562269326
C 0.7640434900 0.1032113352 0.4493014670
H 1.0086148864 0.1827116621 1.5172933466
C -0.1499997884 1.2598237700 0.0038766220
C -1.5425567370 0.6305856121 -0.0010028997
C -1.2120003333 -0.8148403944 -0.3646592618
O 0.0031988144 -1.1047664895 0.3064335181
H 2.6323848022 0.9361027260 -0.2156174409
H 2.6464878866 -0.8253298571 -0.0256365289
H 1.8330555524 -0.0986751139 -1.4128921559
H -0.0749154513 2.1128501461 0.6729514379
H 0.1238702604 1.5758929643 -1.0030283634
H -1.9839728880 0.6696614664 0.9948945986
H -2.2184900392 1.0935356029 -0.7143629633
H -1.9523569329 -1.5402360503 -0.0255105610
H -1.0740462847 -0.9219145412 -1.4502297673
16
CONF2
C 1.9200876703 0.1291586918 -0.5249392444
C 0.7881198320 0.0525236867 0.4985025437
H 1.2200657085 -0.0123374510 1.5058711889
C -0.1991391235 1.2227501959 0.3774724513
C -1.2874020054 0.6469343916 -0.5266177498
C -1.3083011564 -0.8131495234 -0.0805946378
O 0.0246738438 -1.1426068772 0.2888701353
H 1.5153991408 0.2410510635 -1.5272835169
H 2.5660370826 0.9727239422 -0.3001162666
H 2.5038222845 -0.7866386226 -0.4883523307
H -0.6143913696 1.4675837874 1.3551382928
H 0.2754640185 2.1067794441 -0.0392782072
H -2.2518580625 1.1291918192 -0.3947129626
H -0.9917159701 0.7169581042 -1.5731559017
H -1.9617620761 -0.9461321245 0.7931484689
H -1.6203676605 -1.5069103179 -0.8639682340
