 xtb: 6.7.1 (edcfbbe)
          04062520053D

 27 27  0     0  0            999 V2000
   -3.3231    0.4532   -0.3116 C   0  0  0  0  0  0  0  0  0  0  0  0
   -1.8594    0.5145   -0.0166 C   0  0  0  0  0  0  0  0  0  0  0  0
   -1.0920    1.5807   -0.2104 C   0  0  0  0  0  0  0  0  0  0  0  0
    0.3678    1.4920    0.0957 C   0  0  0  0  0  0  0  0  0  0  0  0
    0.9564    0.2399   -0.5875 C   0  0  0  0  0  0  0  0  0  0  0  0
    0.9422    0.4319   -1.6646 H   0  0  0  0  0  0  0  0  0  0  0  0
    0.0891   -1.0064   -0.3138 C   0  0  0  0  0  0  0  0  0  0  0  0
   -1.1643   -0.7126    0.5299 C   0  0  0  0  0  0  0  0  0  0  0  0
   -0.8448   -0.4979    1.5659 H   0  0  0  0  0  0  0  0  0  0  0  0
   -1.9491   -1.8887    0.5208 O   0  0  0  0  0  0  0  0  0  0  0  0
    2.3899    0.0037   -0.1791 C   0  0  0  0  0  0  0  0  0  0  0  0
    3.3507   -0.0991   -1.0846 C   0  0  0  0  0  0  0  0  0  0  0  0
    2.6786   -0.1080    1.2884 C   0  0  0  0  0  0  0  0  0  0  0  0
   -3.5433   -0.4217   -0.9214 H   0  0  0  0  0  0  0  0  0  0  0  0
   -3.6373    1.3471   -0.8429 H   0  0  0  0  0  0  0  0  0  0  0  0
   -3.8996    0.3796    0.6105 H   0  0  0  0  0  0  0  0  0  0  0  0
   -1.4908    2.5042   -0.6012 H   0  0  0  0  0  0  0  0  0  0  0  0
    0.9001    2.3777   -0.2508 H   0  0  0  0  0  0  0  0  0  0  0  0
    0.5065    1.4108    1.1767 H   0  0  0  0  0  0  0  0  0  0  0  0
   -0.2620   -1.4331   -1.2542 H   0  0  0  0  0  0  0  0  0  0  0  0
    0.6666   -1.7823    0.1900 H   0  0  0  0  0  0  0  0  0  0  0  0
   -2.7149   -1.7630    1.0963 H   0  0  0  0  0  0  0  0  0  0  0  0
    4.3758   -0.2813   -0.8086 H   0  0  0  0  0  0  0  0  0  0  0  0
    3.1537   -0.0057   -2.1392 H   0  0  0  0  0  0  0  0  0  0  0  0
    3.6348   -0.5973    1.4530 H   0  0  0  0  0  0  0  0  0  0  0  0
    2.7257    0.8841    1.7362 H   0  0  0  0  0  0  0  0  0  0  0  0
    1.9007   -0.6716    1.7976 H   0  0  0  0  0  0  0  0  0  0  0  0
  1  2  1  0  0  0  0
  2  3  2  0  0  0  0
  3  4  1  0  0  0  0
  4  5  1  0  0  0  0
  5  6  1  0  0  0  0
  5  7  1  0  0  0  0
  2  8  1  0  0  0  0
  7  8  1  0  0  0  0
  8  9  1  0  0  0  0
  8 10  1  0  0  0  0
  5 11  1  0  0  0  0
 11 12  2  0  0  0  0
 11 13  1  0  0  0  0
  1 14  1  0  0  0  0
  1 15  1  0  0  0  0
  1 16  1  0  0  0  0
  3 17  1  0  0  0  0
  4 18  1  0  0  0  0
  4 19  1  0  0  0  0
  7 20  1  0  0  0  0
  7 21  1  0  0  0  0
 10 22  1  0  0  0  0
 12 23  1  0  0  0  0
 12 24  1  0  0  0  0
 13 25  1  0  0  0  0
 13 26  1  0  0  0  0
 13 27  1  0  0  0  0
M  END
