14
 xtb: 6.7.1 (edcfbbe)
C           -1.61883015296106       -1.69469832249677       -0.35786344653275
C           -1.58734101509013       -0.23324380219463       -0.79600261051556
C           -2.26084401713060        0.67899408758033        0.22527728678456
C           -0.20012793818543        0.23658618160925       -1.18192990332673
Br           1.10269992229608        0.21374086884409        0.34594583306246
H           -1.08795804022640       -1.82714602701570        0.59064117258777
H           -2.65148651182077       -2.02742199218888       -0.21542567426404
H           -1.15035225337413       -2.34433084759436       -1.10461400625158
H           -2.14306175566705       -0.15071282714188       -1.74431719984787
H           -3.30227319152509        0.37878462878746        0.37563924006292
H           -2.25017460118714        1.72287137835547       -0.10525696073814
H           -1.75036898293746        0.62224063165729        1.19236202836511
H           -0.19441507519200        1.27284822484507       -1.51934183996653
H            0.25949863424419       -0.40747359226806       -1.93134546940968
