11
CONF1
C 2.0280022755 0.0423009377 -0.0003761419
C 0.7412051119 -0.7662303942 0.0004792648
C -0.4965363555 0.0845249941 -0.0000078814
O -0.5155820956 1.3007877433 -0.0002980638
O -1.6819759824 -0.5790146226 -0.0002214869
H 2.0919008487 0.6807459052 0.8848510956
H 2.8895423624 -0.6301139264 0.0003597375
H 2.0919250816 0.6788391360 -0.8869767170
H 0.6829654020 -1.4268854383 -0.8743217839
H 0.6831650554 -1.4252451244 0.8765414498
H -1.5329605430 -1.5379978778 -0.0000177969
11
CONF4
C 1.6917390916 -1.0708618846 0.1603409114
C 1.0396188110 0.2575776327 -0.2017874892
C -0.4578275143 0.3476480310 -0.0621348421
O -1.0734663126 1.3962075344 -0.1461409137
O -1.1560480974 -0.7927731824 0.1461966690
H 2.7757506110 -0.9885189232 0.0484728357
H 1.4857670348 -1.3505140486 1.1985801791
H 1.3628361175 -1.8818275003 -0.4991386417
H 1.4471415627 1.0754280578 0.4014292055
H 1.2510513445 0.5211786623 -1.2461484294
H -0.5602301985 -1.5576462233 0.1937317955
11
CONF3
C 1.6827671476 -1.0981133265 0.0025076164
C 1.0510699998 0.2868342341 -0.0034195475
C -0.4534119083 0.3571466438 -0.0000083716
O -1.0706128305 1.4081603708 -0.0014506499
O -1.1549057712 -0.8001177665 0.0010338320
H 2.7716482814 -1.0036501740 0.0014005200
H 1.4076602460 -1.6672986806 0.8972339769
H 1.4067561611 -1.6756170296 -0.8866121203
H 1.3757832762 0.8697127605 0.8664134830
H 1.3718450024 0.8601208258 -0.8811595185
H -0.5557515187 -1.5640565459 0.0016416176
11
CONF6
C 1.7484713417 -0.8626333480 0.4204713484
C 0.9567069545 0.0366936460 -0.5304706687
C -0.4640321701 0.3064963160 -0.1185710709
O -1.0079566669 1.3929633009 -0.1953762335
O -1.1918492510 -0.7418318819 0.3432906128
H 1.7268138347 -0.4724121384 1.4418793042
H 1.3742744053 -1.8915491645 0.4320226792
H 2.7901570343 -0.9041189327 0.0930645318
H 1.4411454191 1.0083932483 -0.6459425191
H 0.9073476584 -0.4221301754 -1.5273801160
H -0.6603902265 -1.5534833770 0.3516386583
11
CONF5
C 1.6907346242 -1.0739171435 0.1505924800
C 1.0407990545 0.2606294265 -0.1906780348
C -0.4576446251 0.3473281643 -0.0630458634
O -1.0743090075 1.3943959218 -0.1554989540
O -1.1553727725 -0.7927566947 0.1447758151
H 1.3609583558 -1.8735497857 -0.5220739211
H 2.7748567819 -0.9911684671 0.0408373225
H 1.4841732964 -1.3701311375 1.1840697876
H 1.4413660227 1.0661085084 0.4335519356
H 1.2622950963 0.5470784761 -1.2265785569
H -0.5586049802 -1.5564954866 0.1971457173
11
CONF2
C 1.8101296012 -0.5031284849 0.5118394170
C 0.8356652298 -0.3289797887 -0.6628632002
C -0.4779428452 0.2197009403 -0.1856235169
O -0.8392072360 1.3751467134 -0.3146491729
O -1.2970906212 -0.6395760717 0.4727913600
H 1.4334126001 -1.2309417964 1.2360357171
H 2.7722567951 -0.8608773052 0.1374711431
H 1.9725687374 0.4481663036 1.0261406828
H 1.2405878581 0.3723435144 -1.3948777171
H 0.6683964023 -1.2931861893 -1.1555162441
H -0.9055191983 -1.5271303463 0.5009349992
