 xtb: 6.7.1 (edcfbbe)
          04032521083D

 18 18  0     0  0            999 V2000
   -2.1116   -0.0025   -0.3298 C   0  0  0  0  0  0  0  0  0  0  0  0
   -0.8029   -0.0677    0.4495 C   0  0  0  0  0  0  0  0  0  0  0  0
    0.0946   -1.2252   -0.0242 C   0  0  0  0  0  0  0  0  0  0  0  0
    1.5174   -0.6820    0.0697 C   0  0  0  0  0  0  0  0  0  0  0  0
    1.3520    0.7619   -0.3933 C   0  0  0  0  0  0  0  0  0  0  0  0
    0.0524    1.2089    0.2821 C   0  0  0  0  0  0  0  0  0  0  0  0
   -1.9161    0.1697   -1.3860 H   0  0  0  0  0  0  0  0  0  0  0  0
   -2.6598   -0.9368   -0.2285 H   0  0  0  0  0  0  0  0  0  0  0  0
   -2.7384    0.8050    0.0421 H   0  0  0  0  0  0  0  0  0  0  0  0
   -1.0417   -0.2064    1.5081 H   0  0  0  0  0  0  0  0  0  0  0  0
   -0.0501   -2.1263    0.5702 H   0  0  0  0  0  0  0  0  0  0  0  0
   -0.1347   -1.4637   -1.0642 H   0  0  0  0  0  0  0  0  0  0  0  0
    1.8609   -0.7039    1.1053 H   0  0  0  0  0  0  0  0  0  0  0  0
    2.2223   -1.2440   -0.5414 H   0  0  0  0  0  0  0  0  0  0  0  0
    2.1979    1.3923   -0.1227 H   0  0  0  0  0  0  0  0  0  0  0  0
    1.2398    0.7859   -1.4783 H   0  0  0  0  0  0  0  0  0  0  0  0
    0.2721    1.6439    1.2576 H   0  0  0  0  0  0  0  0  0  0  0  0
   -0.4679    1.9621   -0.3080 H   0  0  0  0  0  0  0  0  0  0  0  0
  1  2  1  0  0  0  0
  2  3  1  0  0  0  0
  3  4  1  0  0  0  0
  4  5  1  0  0  0  0
  2  6  1  0  0  0  0
  5  6  1  0  0  0  0
  1  7  1  0  0  0  0
  1  8  1  0  0  0  0
  1  9  1  0  0  0  0
  2 10  1  0  0  0  0
  3 11  1  0  0  0  0
  3 12  1  0  0  0  0
  4 13  1  0  0  0  0
  4 14  1  0  0  0  0
  5 15  1  0  0  0  0
  5 16  1  0  0  0  0
  6 17  1  0  0  0  0
  6 18  1  0  0  0  0
M  END
