 xtb: 6.7.1 (edcfbbe)
          04042521073D

 15 14  0     0  0            999 V2000
   -2.1751    0.3009   -0.4210 C   0  0  0  0  0  0  0  0  0  0  0  0
   -1.0246    0.1890    0.5804 C   0  0  0  0  0  0  0  0  0  0  0  0
   -0.0002   -0.7952    0.1069 C   0  0  0  0  0  0  0  0  0  0  0  0
    1.2758   -0.5719   -0.1692 C   0  0  0  0  0  0  0  0  0  0  0  0
    2.0246    0.7165   -0.0635 C   0  0  0  0  0  0  0  0  0  0  0  0
   -1.8058    0.6565   -1.3803 H   0  0  0  0  0  0  0  0  0  0  0  0
   -2.9281    0.9966   -0.0588 H   0  0  0  0  0  0  0  0  0  0  0  0
   -2.6438   -0.6690   -0.5724 H   0  0  0  0  0  0  0  0  0  0  0  0
   -0.5822    1.1724    0.7353 H   0  0  0  0  0  0  0  0  0  0  0  0
   -1.4221   -0.1547    1.5398 H   0  0  0  0  0  0  0  0  0  0  0  0
   -0.3892   -1.7974   -0.0294 H   0  0  0  0  0  0  0  0  0  0  0  0
    1.8810   -1.4036   -0.5104 H   0  0  0  0  0  0  0  0  0  0  0  0
    1.3873    1.5404    0.2407 H   0  0  0  0  0  0  0  0  0  0  0  0
    2.4742    0.9592   -1.0256 H   0  0  0  0  0  0  0  0  0  0  0  0
    2.8320    0.6142    0.6608 H   0  0  0  0  0  0  0  0  0  0  0  0
  1  2  1  0  0  0  0
  2  3  1  0  0  0  0
  3  4  2  0  0  0  0
  4  5  1  0  0  0  0
  1  6  1  0  0  0  0
  1  7  1  0  0  0  0
  1  8  1  0  0  0  0
  2  9  1  0  0  0  0
  2 10  1  0  0  0  0
  3 11  1  0  0  0  0
  4 12  1  0  0  0  0
  5 13  1  0  0  0  0
  5 14  1  0  0  0  0
  5 15  1  0  0  0  0
M  END
