6
 xtb: 6.7.1 (edcfbbe)
C            0.66432430725446       -0.00000110385312       -0.00017228538900
C           -0.66432418953881        0.00000034970941       -0.00013085228356
H            1.23355290660856        0.92637048942904        0.00002706279957
H            1.23355086960343       -0.92637398567319        0.00003743064876
H           -1.23355240405774       -0.92637133280193        0.00003574893956
H           -1.23355044409899        0.92637331061095        0.00004611441398
