 xtb: 6.7.1 (edcfbbe)
          04062518003D

 24 24  0     0  0            999 V2000
   -2.3331   -0.9647   -0.3172 C   0  0  0  0  0  0  0  0  0  0  0  0
   -0.9404   -0.5128    0.1336 C   0  0  0  0  0  0  0  0  0  0  0  0
   -0.8487   -0.7102    1.2136 H   0  0  0  0  0  0  0  0  0  0  0  0
   -0.7121    0.9961   -0.1093 C   0  0  0  0  0  0  0  0  0  0  0  0
   -1.2769    1.3242   -0.9899 H   0  0  0  0  0  0  0  0  0  0  0  0
    0.7847    1.2539   -0.4059 C   0  0  0  0  0  0  0  0  0  0  0  0
    1.0141    2.2852   -0.1161 H   0  0  0  0  0  0  0  0  0  0  0  0
    1.6493    0.2956    0.4326 C   0  0  0  0  0  0  0  0  0  0  0  0
    2.7020    0.4589    0.1761 H   0  0  0  0  0  0  0  0  0  0  0  0
    1.3095   -1.1672    0.0489 C   0  0  0  0  0  0  0  0  0  0  0  0
    1.2978   -1.7773    0.9767 H   0  0  0  0  0  0  0  0  0  0  0  0
    0.0342   -1.2709   -0.5607 O   0  0  0  0  0  0  0  0  0  0  0  0
    2.2565   -1.6195   -0.8456 O   0  0  0  0  0  0  0  0  0  0  0  0
    1.3842    0.5563    1.7886 O   0  0  0  0  0  0  0  0  0  0  0  0
    1.0824    1.1649   -1.7717 O   0  0  0  0  0  0  0  0  0  0  0  0
   -1.1899    1.7662    0.9627 O   0  0  0  0  0  0  0  0  0  0  0  0
   -3.3401   -0.4607    0.5211 O   0  0  0  0  0  0  0  0  0  0  0  0
   -2.3964   -2.0534   -0.2572 H   0  0  0  0  0  0  0  0  0  0  0  0
   -2.4957   -0.6611   -1.3598 H   0  0  0  0  0  0  0  0  0  0  0  0
    2.0156   -2.5031   -1.1662 H   0  0  0  0  0  0  0  0  0  0  0  0
    2.1309    0.2847    2.3402 H   0  0  0  0  0  0  0  0  0  0  0  0
    0.9817    0.2454   -2.0623 H   0  0  0  0  0  0  0  0  0  0  0  0
   -0.6138    1.6241    1.7305 H   0  0  0  0  0  0  0  0  0  0  0  0
   -3.2354    0.4996    0.6057 H   0  0  0  0  0  0  0  0  0  0  0  0
  1  2  1  0  0  0  0
  2  3  1  0  0  0  0
  2  4  1  0  0  0  0
  4  5  1  0  0  0  0
  4  6  1  0  0  0  0
  6  7  1  0  0  0  0
  6  8  1  0  0  0  0
  8  9  1  0  0  0  0
  8 10  1  0  0  0  0
 10 11  1  0  0  0  0
  2 12  1  0  0  0  0
 10 12  1  0  0  0  0
 10 13  1  0  0  0  0
  8 14  1  0  0  0  0
  6 15  1  0  0  0  0
  4 16  1  0  0  0  0
  1 17  1  0  0  0  0
  1 18  1  0  0  0  0
  1 19  1  0  0  0  0
 13 20  1  0  0  0  0
 14 21  1  0  0  0  0
 15 22  1  0  0  0  0
 16 23  1  0  0  0  0
 17 24  1  0  0  0  0
M  END
