 xtb: 6.7.1 (edcfbbe)
          04062518003D

 24 24  0     0  0            999 V2000
   -1.9082   -0.5684   -0.7905 C   0  0  0  0  0  0  0  0  0  0  0  0
   -1.2142   -0.0874    0.4974 C   0  0  0  0  0  0  0  0  0  0  0  0
   -1.9391   -0.0637    1.3204 H   0  0  0  0  0  0  0  0  0  0  0  0
   -0.6282    1.3274    0.3419 C   0  0  0  0  0  0  0  0  0  0  0  0
   -1.3746    1.9499   -0.1640 H   0  0  0  0  0  0  0  0  0  0  0  0
    0.6732    1.3202   -0.4885 C   0  0  0  0  0  0  0  0  0  0  0  0
    1.1764    2.2823   -0.3078 H   0  0  0  0  0  0  0  0  0  0  0  0
    1.6388    0.2378    0.0253 C   0  0  0  0  0  0  0  0  0  0  0  0
    2.4120    0.0934   -0.7405 H   0  0  0  0  0  0  0  0  0  0  0  0
    0.9454   -1.1230    0.2321 C   0  0  0  0  0  0  0  0  0  0  0  0
    1.5833   -1.7428    0.8902 H   0  0  0  0  0  0  0  0  0  0  0  0
   -0.2440   -1.0233    0.9626 O   0  0  0  0  0  0  0  0  0  0  0  0
    0.8000   -1.7377   -1.0084 O   0  0  0  0  0  0  0  0  0  0  0  0
    2.1738    0.7163    1.2357 O   0  0  0  0  0  0  0  0  0  0  0  0
    0.4506    1.1189   -1.8596 O   0  0  0  0  0  0  0  0  0  0  0  0
   -0.4164    1.9364    1.5922 O   0  0  0  0  0  0  0  0  0  0  0  0
   -2.3015   -1.9163   -0.7077 O   0  0  0  0  0  0  0  0  0  0  0  0
   -1.2148   -0.5084   -1.6310 H   0  0  0  0  0  0  0  0  0  0  0  0
   -2.7697    0.0824   -0.9858 H   0  0  0  0  0  0  0  0  0  0  0  0
    0.1948   -2.4923   -0.9260 H   0  0  0  0  0  0  0  0  0  0  0  0
    2.9075    0.1553    1.5247 H   0  0  0  0  0  0  0  0  0  0  0  0
    0.1193    1.9356   -2.2592 H   0  0  0  0  0  0  0  0  0  0  0  0
    0.3570    1.5261    2.0129 H   0  0  0  0  0  0  0  0  0  0  0  0
   -2.9181   -2.0287    0.0297 H   0  0  0  0  0  0  0  0  0  0  0  0
  1  2  1  0  0  0  0
  2  3  1  0  0  0  0
  2  4  1  0  0  0  0
  4  5  1  0  0  0  0
  4  6  1  0  0  0  0
  6  7  1  0  0  0  0
  6  8  1  0  0  0  0
  8  9  1  0  0  0  0
  8 10  1  0  0  0  0
 10 11  1  0  0  0  0
  2 12  1  0  0  0  0
 10 12  1  0  0  0  0
 10 13  1  0  0  0  0
  8 14  1  0  0  0  0
  6 15  1  0  0  0  0
  4 16  1  0  0  0  0
  1 17  1  0  0  0  0
  1 18  1  0  0  0  0
  1 19  1  0  0  0  0
 13 20  1  0  0  0  0
 14 21  1  0  0  0  0
 15 22  1  0  0  0  0
 16 23  1  0  0  0  0
 17 24  1  0  0  0  0
M  END
