 xtb: 6.7.1 (edcfbbe)
          04062505073D

 29 29  0     0  0            999 V2000
   -2.7885   -0.2234    1.2652 C   0  0  0  0  0  0  0  0  0  0  0  0
   -2.3371   -0.2300   -0.1946 C   0  0  0  0  0  0  0  0  0  0  0  0
   -3.2328   -0.3521   -0.8127 H   0  0  0  0  0  0  0  0  0  0  0  0
   -1.3831   -1.3830   -0.5061 C   0  0  0  0  0  0  0  0  0  0  0  0
   -0.1196   -1.3212    0.3474 C   0  0  0  0  0  0  0  0  0  0  0  0
    0.4794    0.0981    0.4286 C   0  0  0  0  0  0  0  0  0  0  0  0
    0.1912    0.5318    1.3956 H   0  0  0  0  0  0  0  0  0  0  0  0
   -0.1457    1.0466   -0.5674 C   0  0  0  0  0  0  0  0  0  0  0  0
    0.5068    1.8077   -1.2587 O   0  0  0  0  0  0  0  0  0  0  0  0
   -1.6530    1.0820   -0.6020 C   0  0  0  0  0  0  0  0  0  0  0  0
    2.0199    0.1383    0.3737 C   0  0  0  0  0  0  0  0  0  0  0  0
    2.6227   -0.5707    1.5847 C   0  0  0  0  0  0  0  0  0  0  0  0
    2.5904   -0.4327   -0.9239 C   0  0  0  0  0  0  0  0  0  0  0  0
   -3.5595    0.5291    1.4133 H   0  0  0  0  0  0  0  0  0  0  0  0
   -3.2042   -1.1921    1.5316 H   0  0  0  0  0  0  0  0  0  0  0  0
   -1.9662   -0.0038    1.9387 H   0  0  0  0  0  0  0  0  0  0  0  0
   -1.8820   -2.3390   -0.3417 H   0  0  0  0  0  0  0  0  0  0  0  0
   -1.1098   -1.3240   -1.5629 H   0  0  0  0  0  0  0  0  0  0  0  0
   -0.3412   -1.6763    1.3534 H   0  0  0  0  0  0  0  0  0  0  0  0
    0.6155   -2.0002   -0.0813 H   0  0  0  0  0  0  0  0  0  0  0  0
   -1.9565    1.8943    0.0639 H   0  0  0  0  0  0  0  0  0  0  0  0
   -1.9428    1.3830   -1.6111 H   0  0  0  0  0  0  0  0  0  0  0  0
    2.3022    1.1975    0.4130 H   0  0  0  0  0  0  0  0  0  0  0  0
    2.3775   -1.6294    1.5733 H   0  0  0  0  0  0  0  0  0  0  0  0
    2.2502   -0.1381    2.5104 H   0  0  0  0  0  0  0  0  0  0  0  0
    3.7051   -0.4714    1.5730 H   0  0  0  0  0  0  0  0  0  0  0  0
    3.6652   -0.2707   -0.9526 H   0  0  0  0  0  0  0  0  0  0  0  0
    2.1495    0.0675   -1.7825 H   0  0  0  0  0  0  0  0  0  0  0  0
    2.4101   -1.5013   -1.0077 H   0  0  0  0  0  0  0  0  0  0  0  0
  1  2  1  0  0  0  0
  2  3  1  0  0  0  0
  2  4  1  0  0  0  0
  4  5  1  0  0  0  0
  5  6  1  0  0  0  0
  6  7  1  0  0  0  0
  6  8  1  0  0  0  0
  8  9  2  0  0  0  0
  2 10  1  0  0  0  0
  8 10  1  0  0  0  0
  6 11  1  0  0  0  0
 11 12  1  0  0  0  0
 11 13  1  0  0  0  0
  1 14  1  0  0  0  0
  1 15  1  0  0  0  0
  1 16  1  0  0  0  0
  4 17  1  0  0  0  0
  4 18  1  0  0  0  0
  5 19  1  0  0  0  0
  5 20  1  0  0  0  0
 10 21  1  0  0  0  0
 10 22  1  0  0  0  0
 11 23  1  0  0  0  0
 12 24  1  0  0  0  0
 12 25  1  0  0  0  0
 12 26  1  0  0  0  0
 13 27  1  0  0  0  0
 13 28  1  0  0  0  0
 13 29  1  0  0  0  0
M  END
