 xtb: 6.7.1 (edcfbbe)
          04062518003D

 24 24  0     0  0            999 V2000
   -2.4783   -0.4667   -0.2278 C   0  0  0  0  0  0  0  0  0  0  0  0
   -1.0358   -0.2039    0.2164 C   0  0  0  0  0  0  0  0  0  0  0  0
   -0.9421   -0.4193    1.2921 H   0  0  0  0  0  0  0  0  0  0  0  0
   -0.6251    1.2721   -0.0200 C   0  0  0  0  0  0  0  0  0  0  0  0
   -1.2373    1.7056   -0.8190 H   0  0  0  0  0  0  0  0  0  0  0  0
    0.8484    1.3107   -0.4764 C   0  0  0  0  0  0  0  0  0  0  0  0
    1.2446    2.3164   -0.3030 H   0  0  0  0  0  0  0  0  0  0  0  0
    1.6665    0.2978    0.3509 C   0  0  0  0  0  0  0  0  0  0  0  0
    2.7085    0.3255    0.0100 H   0  0  0  0  0  0  0  0  0  0  0  0
    1.1162   -1.1351    0.0902 C   0  0  0  0  0  0  0  0  0  0  0  0
    1.0502   -1.6703    1.0529 H   0  0  0  0  0  0  0  0  0  0  0  0
   -0.1693   -1.0748   -0.4985 O   0  0  0  0  0  0  0  0  0  0  0  0
    1.9420   -1.8938   -0.7120 O   0  0  0  0  0  0  0  0  0  0  0  0
    1.5571    0.6614    1.7063 O   0  0  0  0  0  0  0  0  0  0  0  0
    0.9806    1.0633   -1.8520 O   0  0  0  0  0  0  0  0  0  0  0  0
   -0.8605    2.0637    1.1115 O   0  0  0  0  0  0  0  0  0  0  0  0
   -2.9819   -1.7053    0.1980 O   0  0  0  0  0  0  0  0  0  0  0  0
   -2.5155   -0.4933   -1.3182 H   0  0  0  0  0  0  0  0  0  0  0  0
   -3.0988    0.3608    0.1374 H   0  0  0  0  0  0  0  0  0  0  0  0
    1.9412   -1.5472   -1.6181 H   0  0  0  0  0  0  0  0  0  0  0  0
    2.2793    0.2735    2.2197 H   0  0  0  0  0  0  0  0  0  0  0  0
    0.4449    0.2842   -2.0728 H   0  0  0  0  0  0  0  0  0  0  0  0
   -0.2070    1.8329    1.7928 H   0  0  0  0  0  0  0  0  0  0  0  0
   -3.0419   -1.7200    1.1638 H   0  0  0  0  0  0  0  0  0  0  0  0
  1  2  1  0  0  0  0
  2  3  1  0  0  0  0
  2  4  1  0  0  0  0
  4  5  1  0  0  0  0
  4  6  1  0  0  0  0
  6  7  1  0  0  0  0
  6  8  1  0  0  0  0
  8  9  1  0  0  0  0
  8 10  1  0  0  0  0
 10 11  1  0  0  0  0
  2 12  1  0  0  0  0
 10 12  1  0  0  0  0
 10 13  1  0  0  0  0
  8 14  1  0  0  0  0
  6 15  1  0  0  0  0
  4 16  1  0  0  0  0
  1 17  1  0  0  0  0
  1 18  1  0  0  0  0
  1 19  1  0  0  0  0
 13 20  1  0  0  0  0
 14 21  1  0  0  0  0
 15 22  1  0  0  0  0
 16 23  1  0  0  0  0
 17 24  1  0  0  0  0
M  END
