17
CONF1
C -1.4696032006 -0.0007042438 0.2276849406
C -0.7242095441 1.2537045767 -0.2308465849
C 0.7316937091 1.2124704709 0.2319615621
N 1.4608559037 0.0006939043 -0.1951414420
C 0.7328489055 -1.2117921278 0.2319293112
C -0.7230221959 -1.2544016968 -0.2308584085
H -2.4973035664 -0.0011901292 -0.1534016785
H -1.5332033289 -0.0007379819 1.3250560242
H -0.7495856647 1.3158288654 -1.3280269085
H -1.2101197539 2.1583816685 0.1557247962
H 1.2727277530 2.0917139072 -0.1350498560
H 0.7643163002 1.2525527171 1.3294624308
H 1.4498128699 0.0007023316 -1.2141144791
H 1.2747184178 -2.0905041612 -0.1351222704
H 0.7655209881 -1.2518805083 1.3294280281
H -0.7483591499 -1.3165518728 -1.3280380836
H -1.2080640254 -2.1595415061 0.1557216521
17
CONF2
C -1.4670885038 -0.0006629492 -0.2229996288
C -0.7238010277 1.2562499211 0.2333885718
C 0.7307614631 1.2084129188 -0.2168050290
N 1.3914709517 0.0007290444 0.3143097429
C 0.7319151362 -1.2075495660 -0.2168818123
C -0.7225568689 -1.2568221709 0.2334272406
H -1.5286357981 -0.0007173080 -1.3202917046
H -2.4947564459 -0.0011552024 0.1574616302
H -1.2010025796 2.1552090067 -0.1736706476
H -0.7633319987 1.3332286670 1.3278963520
H 0.7603170589 1.2326673876 -1.3224552437
H 1.2704483140 2.0914837999 0.1420092646
H 2.3454363647 0.0012015009 -0.0341875619
H 0.7613877374 -1.2316461966 -1.3225393073
H 1.2725039143 -2.0901272257 0.1417816965
H -1.1989120926 -2.1562800721 -0.1735192126
H -0.7619147362 -1.3337527759 1.3279470240
