 xtb: 6.7.1 (edcfbbe)
          04052509003D

 22 23  0     0  0            999 V2000
   -4.0851    0.0042    0.0042 C   0  0  0  0  0  0  0  0  0  0  0  0
   -3.3980    0.9347    0.7653 C   0  0  0  0  0  0  0  0  0  0  0  0
   -2.0141    0.9249    0.7568 C   0  0  0  0  0  0  0  0  0  0  0  0
   -1.2992    0.0005    0.0003 C   0  0  0  0  0  0  0  0  0  0  0  0
   -2.0185   -0.9219   -0.7543 C   0  0  0  0  0  0  0  0  0  0  0  0
   -3.4026   -0.9280   -0.7589 C   0  0  0  0  0  0  0  0  0  0  0  0
   -1.1430   -2.0735   -1.7112 Cl  0  0  0  0  0  0  0  0  0  0  0  0
    0.1802   -0.0010   -0.0011 C   0  0  0  0  0  0  0  0  0  0  0  0
    0.8997    0.9204   -0.7580 C   0  0  0  0  0  0  0  0  0  0  0  0
    2.2845    0.9333   -0.7684 C   0  0  0  0  0  0  0  0  0  0  0  0
    2.9613   -0.0012   -0.0006 C   0  0  0  0  0  0  0  0  0  0  0  0
    2.2841   -0.9359    0.7665 C   0  0  0  0  0  0  0  0  0  0  0  0
    0.8993   -0.9228    0.7556 C   0  0  0  0  0  0  0  0  0  0  0  0
    0.0354   -2.0715    1.7115 Cl  0  0  0  0  0  0  0  0  0  0  0  0
    4.6868   -0.0007    0.0003 Cl  0  0  0  0  0  0  0  0  0  0  0  0
    0.0363    2.0687   -1.7147 Cl  0  0  0  0  0  0  0  0  0  0  0  0
   -1.1329    2.0742    1.7113 Cl  0  0  0  0  0  0  0  0  0  0  0  0
   -5.1626    0.0057    0.0055 H   0  0  0  0  0  0  0  0  0  0  0  0
   -3.9237    1.6616    1.3615 H   0  0  0  0  0  0  0  0  0  0  0  0
   -3.9320   -1.6532   -1.3538 H   0  0  0  0  0  0  0  0  0  0  0  0
    2.8195    1.6549   -1.3625 H   0  0  0  0  0  0  0  0  0  0  0  0
    2.8189   -1.6575    1.3608 H   0  0  0  0  0  0  0  0  0  0  0  0
  1  2  4  0  0  0  0
  2  3  4  0  0  0  0
  3  4  4  0  0  0  0
  4  5  4  0  0  0  0
  1  6  4  0  0  0  0
  5  6  4  0  0  0  0
  5  7  1  0  0  0  0
  4  8  1  0  0  0  0
  8  9  4  0  0  0  0
  9 10  4  0  0  0  0
 10 11  4  0  0  0  0
 11 12  4  0  0  0  0
  8 13  4  0  0  0  0
 12 13  4  0  0  0  0
 13 14  1  0  0  0  0
 11 15  1  0  0  0  0
  9 16  1  0  0  0  0
  3 17  1  0  0  0  0
  1 18  1  0  0  0  0
  2 19  1  0  0  0  0
  6 20  1  0  0  0  0
 10 21  1  0  0  0  0
 12 22  1  0  0  0  0
M  END
