 xtb: 6.7.1 (edcfbbe)
          04062518003D

 24 24  0     0  0            999 V2000
   -2.4884   -0.2247   -0.5431 C   0  0  0  0  0  0  0  0  0  0  0  0
   -1.2114   -0.2010    0.3023 C   0  0  0  0  0  0  0  0  0  0  0  0
   -1.4360   -0.5836    1.3098 H   0  0  0  0  0  0  0  0  0  0  0  0
   -0.6152    1.2129    0.4714 C   0  0  0  0  0  0  0  0  0  0  0  0
   -1.3595    1.9603    0.1583 H   0  0  0  0  0  0  0  0  0  0  0  0
    0.6242    1.3695   -0.4370 C   0  0  0  0  0  0  0  0  0  0  0  0
    1.0754    2.3536   -0.2710 H   0  0  0  0  0  0  0  0  0  0  0  0
    1.6910    0.3077   -0.0977 C   0  0  0  0  0  0  0  0  0  0  0  0
    2.2802    0.1290   -1.0114 H   0  0  0  0  0  0  0  0  0  0  0  0
    0.9882   -1.0098    0.3130 C   0  0  0  0  0  0  0  0  0  0  0  0
    0.8575   -1.0120    1.4064 H   0  0  0  0  0  0  0  0  0  0  0  0
   -0.2749   -1.0738   -0.3191 O   0  0  0  0  0  0  0  0  0  0  0  0
    1.7153   -2.1408   -0.0025 O   0  0  0  0  0  0  0  0  0  0  0  0
    2.5113    0.8149    0.9212 O   0  0  0  0  0  0  0  0  0  0  0  0
    0.2649    1.3345   -1.7928 O   0  0  0  0  0  0  0  0  0  0  0  0
   -0.3031    1.3661    1.8332 O   0  0  0  0  0  0  0  0  0  0  0  0
   -3.0584   -1.5062   -0.5985 O   0  0  0  0  0  0  0  0  0  0  0  0
   -2.2694    0.1466   -1.5524 H   0  0  0  0  0  0  0  0  0  0  0  0
   -3.2357    0.4219   -0.0806 H   0  0  0  0  0  0  0  0  0  0  0  0
    1.6806   -2.3023   -0.9583 H   0  0  0  0  0  0  0  0  0  0  0  0
    3.1853    0.1609    1.1551 H   0  0  0  0  0  0  0  0  0  0  0  0
   -0.0579    0.4450   -2.0052 H   0  0  0  0  0  0  0  0  0  0  0  0
    0.1435    2.2118    1.9817 H   0  0  0  0  0  0  0  0  0  0  0  0
   -2.3827   -2.1324   -0.8971 H   0  0  0  0  0  0  0  0  0  0  0  0
  1  2  1  0  0  0  0
  2  3  1  0  0  0  0
  2  4  1  0  0  0  0
  4  5  1  0  0  0  0
  4  6  1  0  0  0  0
  6  7  1  0  0  0  0
  6  8  1  0  0  0  0
  8  9  1  0  0  0  0
  8 10  1  0  0  0  0
 10 11  1  0  0  0  0
  2 12  1  0  0  0  0
 10 12  1  0  0  0  0
 10 13  1  0  0  0  0
  8 14  1  0  0  0  0
  6 15  1  0  0  0  0
  4 16  1  0  0  0  0
  1 17  1  0  0  0  0
  1 18  1  0  0  0  0
  1 19  1  0  0  0  0
 13 20  1  0  0  0  0
 14 21  1  0  0  0  0
 15 22  1  0  0  0  0
 16 23  1  0  0  0  0
 17 24  1  0  0  0  0
M  END
