13
 xtb: 6.7.1 (edcfbbe)
C           -1.13341458640304       -1.33899245689101       -0.50819202635036
C           -0.70410305102697       -0.20150184607295        0.41161181722532
C           -1.55757539295820        1.03856451355317        0.27595278267961
N            0.75250969154750        0.10550314516833        0.06567765130766
O            0.99496169597777        1.01873320826666       -0.71357069466322
O            1.61082824753297       -0.61921733894573        0.55930504227705
H           -1.11120737020891       -1.01745037600626       -1.55376228508622
H           -0.49531474926797       -2.21680331224396       -0.38075552495229
H           -2.15947285508099       -1.61323444916856       -0.24970047032489
H           -0.65457414785556       -0.54837735603136        1.44650840301595
H           -1.16841461973160        1.86207732618831        0.88020594434736
H           -2.55996729452829        0.79140135632709        0.63691574324436
H           -1.63545422396324        1.35869875373412       -0.76585072138320
