14
 xtb: 6.7.1 (edcfbbe)
C           -2.57969802528895        0.60022658547642       -0.15674344732404
C           -1.40073767700203       -0.31112132916395        0.06818697289395
O           -0.19148853703286        0.48867084334738       -0.14096383514746
C            0.98113381723248       -0.14915460439914        0.02311999142202
O            1.06153298299247       -1.32842121311533        0.33136321140422
C            2.15926646734514        0.74079810529848       -0.21068933145919
H           -2.58100044803919        0.99929338872562       -1.17509278272736
H           -3.50277436241348        0.03131711147133       -0.01045496658669
H           -2.57429464960978        1.43332739048042        0.55202280273981
H           -1.38586396341972       -1.14557210512807       -0.63932387546652
H           -1.37730022800296       -0.70862084124356        1.08705878011810
H            2.78567825751475        0.73565718630639        0.68607958470100
H            1.86678725214573        1.76184522192533       -0.45388752659790
H            2.75310178718105        0.32082696569797       -1.02804555619343
