 xtb: 6.7.1 (edcfbbe)
          04042518303D

 13 13  0     0  0            999 V2000
   -1.1490   -1.2826   -0.5849 C   0  0  0  0  0  0  0  0  0  0  0  0
   -0.6770   -0.2271    0.4182 C   0  0  0  0  0  0  0  0  0  0  0  0
   -1.5371    1.0228    0.3828 C   0  0  0  0  0  0  0  0  0  0  0  0
    0.7131    0.0860    0.0491 N   0  0  0  0  0  0  0  0  0  0  0  0
    1.5816   -0.6444    0.4872 O   0  0  0  0  0  0  0  0  0  0  0  0
    0.9295    1.0161   -0.6964 O   0  0  0  0  0  0  0  0  0  0  0  0
   -0.4934   -2.1501   -0.5629 H   0  0  0  0  0  0  0  0  0  0  0  0
   -2.1548   -1.5965   -0.3253 H   0  0  0  0  0  0  0  0  0  0  0  0
   -1.1579   -0.8681   -1.5902 H   0  0  0  0  0  0  0  0  0  0  0  0
   -0.6313   -0.6660    1.4185 H   0  0  0  0  0  0  0  0  0  0  0  0
   -1.1657    1.7674    1.0821 H   0  0  0  0  0  0  0  0  0  0  0  0
   -2.5558    0.7657    0.6535 H   0  0  0  0  0  0  0  0  0  0  0  0
   -1.5347    1.4556   -0.6139 H   0  0  0  0  0  0  0  0  0  0  0  0
  1  2  1  0  0  0  0
  2  3  1  0  0  0  0
  2  4  1  0  0  0  0
  4  5  4  0  0  0  0
  4  6  4  0  0  0  0
  5  6  1  0  0  0  0
  1  7  1  0  0  0  0
  1  8  1  0  0  0  0
  1  9  1  0  0  0  0
  2 10  1  0  0  0  0
  3 11  1  0  0  0  0
  3 12  1  0  0  0  0
  3 13  1  0  0  0  0
M  END
