 xtb: 6.7.1 (edcfbbe)
          04062508313D

 24 24  0     0  0            999 V2000
   -3.4388   -0.5989   -0.1544 C   0  0  0  0  0  0  0  0  0  0  0  0
   -2.1504   -0.3081   -0.7029 O   0  0  0  0  0  0  0  0  0  0  0  0
   -1.2375    0.2091    0.1155 C   0  0  0  0  0  0  0  0  0  0  0  0
   -1.4606    0.4541    1.2818 O   0  0  0  0  0  0  0  0  0  0  0  0
    0.0828    0.3978   -0.5932 C   0  0  0  0  0  0  0  0  0  0  0  0
    0.7370   -0.9950   -0.7175 C   0  0  0  0  0  0  0  0  0  0  0  0
    2.2393   -0.8382   -0.9201 C   0  0  0  0  0  0  0  0  0  0  0  0
    2.8941   -0.2597    0.3408 C   0  0  0  0  0  0  0  0  0  0  0  0
    1.9253    0.6455    1.1106 C   0  0  0  0  0  0  0  0  0  0  0  0
    0.9949    1.3819    0.1530 C   0  0  0  0  0  0  0  0  0  0  0  0
   -3.9125    0.3210    0.1903 H   0  0  0  0  0  0  0  0  0  0  0  0
   -3.3399   -1.2841    0.6884 H   0  0  0  0  0  0  0  0  0  0  0  0
   -4.0055   -1.0508   -0.9621 H   0  0  0  0  0  0  0  0  0  0  0  0
   -0.1387    0.7724   -1.5957 H   0  0  0  0  0  0  0  0  0  0  0  0
    0.5553   -1.5737    0.1908 H   0  0  0  0  0  0  0  0  0  0  0  0
    0.2839   -1.5314   -1.5513 H   0  0  0  0  0  0  0  0  0  0  0  0
    2.6822   -1.8053   -1.1590 H   0  0  0  0  0  0  0  0  0  0  0  0
    2.4098   -0.1765   -1.7703 H   0  0  0  0  0  0  0  0  0  0  0  0
    3.2197   -1.0689    0.9962 H   0  0  0  0  0  0  0  0  0  0  0  0
    3.7808    0.3081    0.0560 H   0  0  0  0  0  0  0  0  0  0  0  0
    1.3159    0.0579    1.7995 H   0  0  0  0  0  0  0  0  0  0  0  0
    2.4861    1.3659    1.7072 H   0  0  0  0  0  0  0  0  0  0  0  0
    0.3765    2.0863    0.7124 H   0  0  0  0  0  0  0  0  0  0  0  0
    1.5895    1.9465   -0.5653 H   0  0  0  0  0  0  0  0  0  0  0  0
  1  2  1  0  0  0  0
  2  3  1  0  0  0  0
  3  4  2  0  0  0  0
  3  5  1  0  0  0  0
  5  6  1  0  0  0  0
  6  7  1  0  0  0  0
  7  8  1  0  0  0  0
  8  9  1  0  0  0  0
  5 10  1  0  0  0  0
  9 10  1  0  0  0  0
  1 11  1  0  0  0  0
  1 12  1  0  0  0  0
  1 13  1  0  0  0  0
  5 14  1  0  0  0  0
  6 15  1  0  0  0  0
  6 16  1  0  0  0  0
  7 17  1  0  0  0  0
  7 18  1  0  0  0  0
  8 19  1  0  0  0  0
  8 20  1  0  0  0  0
  9 21  1  0  0  0  0
  9 22  1  0  0  0  0
 10 23  1  0  0  0  0
 10 24  1  0  0  0  0
M  END
