 xtb: 6.7.1 (edcfbbe)
          04042518303D

 13 13  0     0  0            999 V2000
   -1.1325   -1.3313   -0.4992 C   0  0  0  0  0  0  0  0  0  0  0  0
   -0.6803   -0.2003    0.4275 C   0  0  0  0  0  0  0  0  0  0  0  0
   -1.5482    1.0372    0.2866 C   0  0  0  0  0  0  0  0  0  0  0  0
    0.7116    0.0950    0.0508 N   0  0  0  0  0  0  0  0  0  0  0  0
    0.9264    0.9372   -0.7933 O   0  0  0  0  0  0  0  0  0  0  0  0
    1.5837   -0.5639    0.5845 O   0  0  0  0  0  0  0  0  0  0  0  0
   -1.1260   -0.9945   -1.5333 H   0  0  0  0  0  0  0  0  0  0  0  0
   -0.4754   -2.1922   -0.4007 H   0  0  0  0  0  0  0  0  0  0  0  0
   -2.1415   -1.6287   -0.2325 H   0  0  0  0  0  0  0  0  0  0  0  0
   -0.6438   -0.5611    1.4587 H   0  0  0  0  0  0  0  0  0  0  0  0
   -1.1976    1.8318    0.9402 H   0  0  0  0  0  0  0  0  0  0  0  0
   -2.5708    0.7912    0.5529 H   0  0  0  0  0  0  0  0  0  0  0  0
   -1.5268    1.3990   -0.7379 H   0  0  0  0  0  0  0  0  0  0  0  0
  1  2  1  0  0  0  0
  2  3  1  0  0  0  0
  2  4  1  0  0  0  0
  4  5  4  0  0  0  0
  4  6  4  0  0  0  0
  5  6  1  0  0  0  0
  1  7  1  0  0  0  0
  1  8  1  0  0  0  0
  1  9  1  0  0  0  0
  2 10  1  0  0  0  0
  3 11  1  0  0  0  0
  3 12  1  0  0  0  0
  3 13  1  0  0  0  0
M  END
