 xtb: 6.7.1 (edcfbbe)
          04052518533D

 23 23  0     0  0            999 V2000
   -2.6221   -0.5547    1.0188 C   0  0  0  0  0  0  0  0  0  0  0  0
   -1.7671    0.0255   -0.0722 C   0  0  0  0  0  0  0  0  0  0  0  0
   -2.2200    0.2831   -1.1711 O   0  0  0  0  0  0  0  0  0  0  0  0
   -0.3098    0.2475    0.2742 C   0  0  0  0  0  0  0  0  0  0  0  0
    0.4287    0.9662   -0.8553 C   0  0  0  0  0  0  0  0  0  0  0  0
    1.8933    1.1858   -0.4927 C   0  0  0  0  0  0  0  0  0  0  0  0
    2.5724   -0.1467   -0.1921 C   0  0  0  0  0  0  0  0  0  0  0  0
    1.8435   -0.8683    0.9369 C   0  0  0  0  0  0  0  0  0  0  0  0
    0.3764   -1.0933    0.5798 C   0  0  0  0  0  0  0  0  0  0  0  0
   -3.6596   -0.2725    0.8604 H   0  0  0  0  0  0  0  0  0  0  0  0
   -2.5593   -1.6401    0.9581 H   0  0  0  0  0  0  0  0  0  0  0  0
   -2.2852   -0.2400    2.0005 H   0  0  0  0  0  0  0  0  0  0  0  0
   -0.2749    0.8659    1.1779 H   0  0  0  0  0  0  0  0  0  0  0  0
    0.3557    0.3647   -1.7644 H   0  0  0  0  0  0  0  0  0  0  0  0
   -0.0613    1.9209   -1.0591 H   0  0  0  0  0  0  0  0  0  0  0  0
    2.4031    1.6883   -1.3164 H   0  0  0  0  0  0  0  0  0  0  0  0
    1.9566    1.8329    0.3851 H   0  0  0  0  0  0  0  0  0  0  0  0
    2.5591   -0.7693   -1.0894 H   0  0  0  0  0  0  0  0  0  0  0  0
    3.6146    0.0206    0.0853 H   0  0  0  0  0  0  0  0  0  0  0  0
    2.3202   -1.8302    1.1325 H   0  0  0  0  0  0  0  0  0  0  0  0
    1.9061   -0.2695    1.8479 H   0  0  0  0  0  0  0  0  0  0  0  0
    0.3094   -1.7338   -0.3026 H   0  0  0  0  0  0  0  0  0  0  0  0
   -0.1272   -1.5946    1.4062 H   0  0  0  0  0  0  0  0  0  0  0  0
  1  2  1  0  0  0  0
  2  3  2  0  0  0  0
  2  4  1  0  0  0  0
  4  5  1  0  0  0  0
  5  6  1  0  0  0  0
  6  7  1  0  0  0  0
  7  8  1  0  0  0  0
  4  9  1  0  0  0  0
  8  9  1  0  0  0  0
  1 10  1  0  0  0  0
  1 11  1  0  0  0  0
  1 12  1  0  0  0  0
  4 13  1  0  0  0  0
  5 14  1  0  0  0  0
  5 15  1  0  0  0  0
  6 16  1  0  0  0  0
  6 17  1  0  0  0  0
  7 18  1  0  0  0  0
  7 19  1  0  0  0  0
  8 20  1  0  0  0  0
  8 21  1  0  0  0  0
  9 22  1  0  0  0  0
  9 23  1  0  0  0  0
M  END
