 xtb: 6.7.1 (edcfbbe)
          04052503143D

 19 19  0     0  0            999 V2000
   -3.1859    0.0046    0.8407 C   0  0  0  0  0  0  0  0  0  0  0  0
   -2.4800   -0.0079   -0.5172 C   0  0  0  0  0  0  0  0  0  0  0  0
   -0.9880   -0.0047   -0.3393 C   0  0  0  0  0  0  0  0  0  0  0  0
   -0.2864    1.1904   -0.2335 C   0  0  0  0  0  0  0  0  0  0  0  0
    1.0790    1.2016   -0.0304 C   0  0  0  0  0  0  0  0  0  0  0  0
    1.7772    0.0026    0.0746 C   0  0  0  0  0  0  0  0  0  0  0  0
    1.0866   -1.1984   -0.0267 C   0  0  0  0  0  0  0  0  0  0  0  0
   -0.2814   -1.1942   -0.2301 C   0  0  0  0  0  0  0  0  0  0  0  0
    3.1250    0.0580    0.2726 O   0  0  0  0  0  0  0  0  0  0  0  0
   -2.9037    0.8909    1.4042 H   0  0  0  0  0  0  0  0  0  0  0  0
   -2.9053   -0.8719    1.4201 H   0  0  0  0  0  0  0  0  0  0  0  0
   -4.2648    0.0044    0.7080 H   0  0  0  0  0  0  0  0  0  0  0  0
   -2.7843    0.8712   -1.0881 H   0  0  0  0  0  0  0  0  0  0  0  0
   -2.7834   -0.8979   -1.0715 H   0  0  0  0  0  0  0  0  0  0  0  0
   -0.8160    2.1284   -0.3146 H   0  0  0  0  0  0  0  0  0  0  0  0
    1.6261    2.1281    0.0488 H   0  0  0  0  0  0  0  0  0  0  0  0
    1.6175   -2.1365    0.0520 H   0  0  0  0  0  0  0  0  0  0  0  0
   -0.8063   -2.1353   -0.3081 H   0  0  0  0  0  0  0  0  0  0  0  0
    3.4955   -0.8355    0.3268 H   0  0  0  0  0  0  0  0  0  0  0  0
  1  2  1  0  0  0  0
  2  3  1  0  0  0  0
  3  4  4  0  0  0  0
  4  5  4  0  0  0  0
  5  6  4  0  0  0  0
  6  7  4  0  0  0  0
  3  8  4  0  0  0  0
  7  8  4  0  0  0  0
  6  9  1  0  0  0  0
  1 10  1  0  0  0  0
  1 11  1  0  0  0  0
  1 12  1  0  0  0  0
  2 13  1  0  0  0  0
  2 14  1  0  0  0  0
  4 15  1  0  0  0  0
  5 16  1  0  0  0  0
  7 17  1  0  0  0  0
  8 18  1  0  0  0  0
  9 19  1  0  0  0  0
M  END
