 xtb: 6.7.1 (edcfbbe)
          04062518003D

 24 24  0     0  0            999 V2000
   -2.5000   -0.4323   -0.3405 C   0  0  0  0  0  0  0  0  0  0  0  0
   -1.1074   -0.1967    0.2574 C   0  0  0  0  0  0  0  0  0  0  0  0
   -1.1242   -0.4456    1.3310 H   0  0  0  0  0  0  0  0  0  0  0  0
   -0.6397    1.2709    0.0976 C   0  0  0  0  0  0  0  0  0  0  0  0
   -1.2969    1.7966   -0.6068 H   0  0  0  0  0  0  0  0  0  0  0  0
    0.7863    1.3120   -0.5001 C   0  0  0  0  0  0  0  0  0  0  0  0
    1.1802    2.3242   -0.3575 H   0  0  0  0  0  0  0  0  0  0  0  0
    1.6909    0.3228    0.2515 C   0  0  0  0  0  0  0  0  0  0  0  0
    2.6636    0.2667   -0.2507 H   0  0  0  0  0  0  0  0  0  0  0  0
    1.0735   -1.0998    0.1836 C   0  0  0  0  0  0  0  0  0  0  0  0
    0.9984   -1.4887    1.2199 H   0  0  0  0  0  0  0  0  0  0  0  0
   -0.2199   -1.0927   -0.3953 O   0  0  0  0  0  0  0  0  0  0  0  0
    1.8834   -1.8894   -0.6043 O   0  0  0  0  0  0  0  0  0  0  0  0
    1.9348    0.7217    1.5734 O   0  0  0  0  0  0  0  0  0  0  0  0
    0.7780    1.0880   -1.8824 O   0  0  0  0  0  0  0  0  0  0  0  0
   -0.5940    1.9357    1.3395 O   0  0  0  0  0  0  0  0  0  0  0  0
   -3.0138   -1.6976   -0.0192 O   0  0  0  0  0  0  0  0  0  0  0  0
   -2.4428   -0.2953   -1.4271 H   0  0  0  0  0  0  0  0  0  0  0  0
   -3.2032    0.2902    0.0763 H   0  0  0  0  0  0  0  0  0  0  0  0
    1.5181   -2.7850   -0.6803 H   0  0  0  0  0  0  0  0  0  0  0  0
    1.1523    1.1884    1.9170 H   0  0  0  0  0  0  0  0  0  0  0  0
    0.5680    0.1557   -2.0499 H   0  0  0  0  0  0  0  0  0  0  0  0
   -1.4844    2.1719    1.6344 H   0  0  0  0  0  0  0  0  0  0  0  0
   -2.4295   -2.3743   -0.3889 H   0  0  0  0  0  0  0  0  0  0  0  0
  1  2  1  0  0  0  0
  2  3  1  0  0  0  0
  2  4  1  0  0  0  0
  4  5  1  0  0  0  0
  4  6  1  0  0  0  0
  6  7  1  0  0  0  0
  6  8  1  0  0  0  0
  8  9  1  0  0  0  0
  8 10  1  0  0  0  0
 10 11  1  0  0  0  0
  2 12  1  0  0  0  0
 10 12  1  0  0  0  0
 10 13  1  0  0  0  0
  8 14  1  0  0  0  0
  6 15  1  0  0  0  0
  4 16  1  0  0  0  0
  1 17  1  0  0  0  0
  1 18  1  0  0  0  0
  1 19  1  0  0  0  0
 13 20  1  0  0  0  0
 14 21  1  0  0  0  0
 15 22  1  0  0  0  0
 16 23  1  0  0  0  0
 17 24  1  0  0  0  0
M  END
