24
CONF1
C -2.9207392575 -0.0000265654 -0.0499189355
C -1.4448999584 -0.0000608277 0.3392593094
C -0.7383512591 -1.2477345055 -0.1920586657
C 0.7383472807 -1.2476547455 0.1923829481
C 1.4447921378 -0.0000339499 -0.3392149042
C 0.7384541223 1.2477688393 0.1921013207
C -0.7384061510 1.2477906495 -0.1917745613
C 2.9208041601 -0.0000773058 0.0492874623
H -3.4199459325 0.8822808199 0.3439176901
H -3.0269434974 0.0002777502 -1.1327757433
H -3.4197539503 -0.8827183898 0.3432891059
H -1.3719540325 -0.0001771783 1.4331301478
H -1.2224618573 -2.1428904625 0.2046393961
H -0.8295855427 -1.2739906471 -1.2807766521
H 0.8295662834 -1.2736334327 1.2811171456
H 1.2225256233 -2.1428719185 -0.2040930580
H 1.3713772965 -0.0001545502 -1.4330602219
H 0.8301917796 1.2743444828 1.2807718715
H 1.2223967754 2.1428201352 -0.2050688527
H -1.2223759091 2.1427605013 0.2055143850
H -0.8300589058 1.2745570355 -1.2804453151
H 3.0275356702 -0.0015459176 1.1320422803
H 3.4194466258 0.8831177687 -0.3432548446
H 3.4200267623 -0.8818374272 -0.3457097009
24
CONF2
C -2.9235926564 -0.0000174830 -0.0594815427
C -1.4501149351 0.0001641930 0.3388298423
C -0.7403988618 -1.2475156572 -0.1879066726
C 0.7356506172 -1.2457615704 0.1994460551
C 1.4448156236 0.0001690800 -0.3354476594
C 0.7353754629 1.2456672836 0.1999836600
C -0.7402970988 1.2475042226 -0.1884609280
C 2.9373715339 -0.0001183877 0.0353566634
H -3.4257842961 -0.8808845615 0.3337829414
H -3.4244000212 0.8842089548 0.3280164850
H -3.0230527445 -0.0034610318 -1.1429816638
H -1.3838522424 0.0004451391 1.4331135330
H -1.2241656734 -2.1424384508 0.2098203234
H -0.8290788597 -1.2767226763 -1.2768139603
H 0.8244525505 -1.2679036062 1.2885444027
H 1.2191305778 -2.1420443572 -0.1956570240
H 1.3460060639 0.0005300732 -1.4266241646
H 0.8232697695 1.2669133987 1.2891153974
H 1.2191531866 2.1422753279 -0.1939303374
H -1.2243080907 2.1426933430 0.2082943082
H -0.8281778860 1.2758510066 -1.2773860679
H 3.5641459907 -0.0064042266 -0.8521886765
H 3.1889704421 -0.8756353712 0.6288729115
H 3.1918760422 0.8814844915 0.6183814148
24
CONF3
C -2.3992922590 -0.0000712441 -0.5365781951
C -1.3777596751 0.0000131707 0.5997889461
C -0.4955286656 -1.2523084411 0.5809066864
C 0.4954560184 -1.2524528310 -0.5805426735
C 1.3774978540 0.0000120357 -0.5998647538
C 0.4955325353 1.2525339513 -0.5804422699
C -0.4956420298 1.2524108384 0.5808654503
C 2.3996725257 -0.0001225046 0.5359140332
H -3.0332837286 -0.8815948410 -0.4707921548
H -3.0323541675 0.8822008740 -0.4719000006
H -1.9155889126 -0.0009435597 -1.5085429874
H -1.9410825674 0.0000345867 1.5416589469
H 0.0529658133 -1.3113390076 1.5228575167
H -1.1266469345 -2.1415269864 0.5152767364
H 1.1267297659 -2.1415361774 -0.5146201542
H -0.0530397009 -1.3118972671 -1.5224576722
H 1.9402948693 0.0000349761 -1.5420482368
H 1.1268922093 2.1415468362 -0.5142579136
H -0.0528204361 1.3122069839 -1.5224262090
H 0.0527121340 1.3115938598 1.5228924749
H -1.1268504288 2.1415535137 0.5150219876
H 3.0334452057 -0.8818346217 0.4698685022
H 1.9164945422 -0.0007363942 1.5082283755
H 3.0328913951 0.8820587658 0.4706780310
