22
CONF2
C -3.9176039929 1.5325794322 0.0419403789
C -3.1643483924 1.4716242520 1.2114986440
C -1.8807216470 0.9341032259 1.1885180841
C -1.3415330441 0.4414264081 -0.0044810684
C -2.1031291934 0.5066215778 -1.1767298443
C -3.3820120783 1.0524431405 -1.1517608256
C 0.0416106983 -0.0865978109 -0.0208953414
C 1.0805855968 0.7399259172 0.4267345081
C 2.3897845686 0.2851769905 0.4174454096
C 2.7195536228 -0.9885684104 -0.0255895743
C 1.6982617638 -1.8243315724 -0.4592377450
C 0.3831161497 -1.3742922303 -0.4523208873
Cl -0.8669035445 -2.5082234073 -0.9490447687
Cl 3.6678138463 1.3568658853 0.9755566057
H -4.9170647774 1.9555167470 0.0588212032
H -3.5754843067 1.8422960539 2.1451502412
H -1.2933051686 0.8849243369 2.1004697003
H -1.6849645427 0.1471069306 -2.1113691844
H -3.9594845954 1.1082796865 -2.0691827468
H 0.8465359217 1.7437844453 0.7630752902
H 3.7469414008 -1.3328549239 -0.0306583077
H 1.9297951508 -2.8296116709 -0.7919741383
22
CONF1
C -3.9168387485 1.5479095224 -0.0790421815
C -3.5438223704 0.5820284084 -1.0118358473
C -2.2640068630 0.0391149280 -0.9852484341
C -1.3382300878 0.4619426767 -0.0247366556
C -1.7141526618 1.4422529695 0.8997333331
C -2.9984362811 1.9777899130 0.8751579379
C 0.0413241828 -0.0744062368 -0.0035234978
C 1.1136220663 0.8247473900 -0.0753357302
C 2.4188006241 0.3594052264 -0.0628620572
C 2.7139268588 -0.9944331619 0.0206906721
C 1.6613949020 -1.8970311415 0.1057713657
C 0.3501547661 -1.4368748937 0.0962565566
Cl -0.9287505355 -2.6318127591 0.2842965502
Cl 3.7377521900 1.5197165660 -0.1641162607
H -4.9181156486 1.9661369244 -0.0992168294
H -4.2508872491 0.2524452179 -1.7664806619
H -1.9749072739 -0.7020788166 -1.7229050952
H -0.9998816553 1.7745704075 1.6468686112
H -3.2806767961 2.7305154552 1.6043892447
H 0.9067112754 1.8858555524 -0.1569368975
H 3.7382834154 -1.3474357622 0.0266551502
H 1.8673719223 -2.9577187058 0.1911140347
