 xtb: 6.7.1 (edcfbbe)
          04032521023D

 19 20  0     0  0            999 V2000
   -2.1965    0.6923    0.0492 C   0  0  0  0  0  0  0  0  0  0  0  0
   -2.1965   -0.6922    0.0493 C   0  0  0  0  0  0  0  0  0  0  0  0
   -1.0023   -1.3987   -0.0040 C   0  0  0  0  0  0  0  0  0  0  0  0
    0.1850   -0.6966   -0.0520 C   0  0  0  0  0  0  0  0  0  0  0  0
    0.1850    0.6966   -0.0521 C   0  0  0  0  0  0  0  0  0  0  0  0
   -1.0022    1.3987   -0.0042 C   0  0  0  0  0  0  0  0  0  0  0  0
    1.5889    1.2215   -0.1235 C   0  0  0  0  0  0  0  0  0  0  0  0
    2.4422   -0.0001    0.2547 C   0  0  0  0  0  0  0  0  0  0  0  0
    1.5888   -1.2217   -0.1233 C   0  0  0  0  0  0  0  0  0  0  0  0
   -3.1334    1.2279    0.0932 H   0  0  0  0  0  0  0  0  0  0  0  0
   -3.1335   -1.2277    0.0933 H   0  0  0  0  0  0  0  0  0  0  0  0
   -1.0050   -2.4790   -0.0033 H   0  0  0  0  0  0  0  0  0  0  0  0
   -1.0048    2.4791   -0.0037 H   0  0  0  0  0  0  0  0  0  0  0  0
    1.8047    1.5476   -1.1446 H   0  0  0  0  0  0  0  0  0  0  0  0
    1.7538    2.0692    0.5410 H   0  0  0  0  0  0  0  0  0  0  0  0
    3.4090   -0.0002   -0.2453 H   0  0  0  0  0  0  0  0  0  0  0  0
    2.6154    0.0000    1.3319 H   0  0  0  0  0  0  0  0  0  0  0  0
    1.8046   -1.5480   -1.1443 H   0  0  0  0  0  0  0  0  0  0  0  0
    1.7536   -2.0692    0.5414 H   0  0  0  0  0  0  0  0  0  0  0  0
  1  2  4  0  0  0  0
  2  3  4  0  0  0  0
  3  4  4  0  0  0  0
  4  5  4  0  0  0  0
  1  6  4  0  0  0  0
  5  6  4  0  0  0  0
  5  7  1  0  0  0  0
  7  8  1  0  0  0  0
  4  9  1  0  0  0  0
  8  9  1  0  0  0  0
  1 10  1  0  0  0  0
  2 11  1  0  0  0  0
  3 12  1  0  0  0  0
  6 13  1  0  0  0  0
  7 14  1  0  0  0  0
  7 15  1  0  0  0  0
  8 16  1  0  0  0  0
  8 17  1  0  0  0  0
  9 18  1  0  0  0  0
  9 19  1  0  0  0  0
M  END
