 xtb: 6.7.1 (edcfbbe)
          04042520253D

 15 14  0     0  0            999 V2000
    2.0668    0.0318   -0.1187 C   0  0  0  0  0  0  0  0  0  0  0  0
    0.7597    0.6671    0.3399 C   0  0  0  0  0  0  0  0  0  0  0  0
   -0.4567    0.0234   -0.3317 C   0  0  0  0  0  0  0  0  0  0  0  0
   -0.3052    0.0360   -1.4243 H   0  0  0  0  0  0  0  0  0  0  0  0
   -1.7405    0.7821    0.0058 C   0  0  0  0  0  0  0  0  0  0  0  0
   -0.5231   -1.3240    0.1102 O   0  0  0  0  0  0  0  0  0  0  0  0
    2.2097    0.1826   -1.1865 H   0  0  0  0  0  0  0  0  0  0  0  0
    2.0462   -1.0366    0.0802 H   0  0  0  0  0  0  0  0  0  0  0  0
    2.9080    0.4711    0.4106 H   0  0  0  0  0  0  0  0  0  0  0  0
    0.7634    1.7332    0.1104 H   0  0  0  0  0  0  0  0  0  0  0  0
    0.6535    0.5438    1.4190 H   0  0  0  0  0  0  0  0  0  0  0  0
   -2.5967    0.3254   -0.4856 H   0  0  0  0  0  0  0  0  0  0  0  0
   -1.9045    0.7669    1.0807 H   0  0  0  0  0  0  0  0  0  0  0  0
   -1.6610    1.8132   -0.3252 H   0  0  0  0  0  0  0  0  0  0  0  0
   -1.3005   -1.7468   -0.2771 H   0  0  0  0  0  0  0  0  0  0  0  0
  1  2  1  0  0  0  0
  2  3  1  0  0  0  0
  3  4  1  0  0  0  0
  3  5  1  0  0  0  0
  3  6  1  0  0  0  0
  1  7  1  0  0  0  0
  1  8  1  0  0  0  0
  1  9  1  0  0  0  0
  2 10  1  0  0  0  0
  2 11  1  0  0  0  0
  5 12  1  0  0  0  0
  5 13  1  0  0  0  0
  5 14  1  0  0  0  0
  6 15  1  0  0  0  0
M  END
