 xtb: 6.7.1 (edcfbbe)
          04062518003D

 24 24  0     0  0            999 V2000
   -2.2820   -1.0756   -0.1830 C   0  0  0  0  0  0  0  0  0  0  0  0
   -0.9012   -0.5593    0.2201 C   0  0  0  0  0  0  0  0  0  0  0  0
   -0.7755   -0.6522    1.3097 H   0  0  0  0  0  0  0  0  0  0  0  0
   -0.7307    0.9271   -0.1517 C   0  0  0  0  0  0  0  0  0  0  0  0
   -1.2198    1.1156   -1.1198 H   0  0  0  0  0  0  0  0  0  0  0  0
    0.7594    1.2627   -0.3447 C   0  0  0  0  0  0  0  0  0  0  0  0
    0.9070    2.2860    0.0393 H   0  0  0  0  0  0  0  0  0  0  0  0
    1.6435    0.2964    0.4620 C   0  0  0  0  0  0  0  0  0  0  0  0
    2.7033    0.4943    0.2356 H   0  0  0  0  0  0  0  0  0  0  0  0
    1.3755   -1.1554    0.0216 C   0  0  0  0  0  0  0  0  0  0  0  0
    1.5410   -1.8016    0.9106 H   0  0  0  0  0  0  0  0  0  0  0  0
    0.0597   -1.3584   -0.4422 O   0  0  0  0  0  0  0  0  0  0  0  0
    2.2542   -1.4764   -0.9959 O   0  0  0  0  0  0  0  0  0  0  0  0
    1.4109    0.3753    1.8435 O   0  0  0  0  0  0  0  0  0  0  0  0
    1.0349    1.2083   -1.7194 O   0  0  0  0  0  0  0  0  0  0  0  0
   -1.2511    1.7712    0.8417 O   0  0  0  0  0  0  0  0  0  0  0  0
   -3.2504   -0.2635    0.4388 O   0  0  0  0  0  0  0  0  0  0  0  0
   -2.3722   -2.1208    0.1339 H   0  0  0  0  0  0  0  0  0  0  0  0
   -2.3603   -1.0265   -1.2759 H   0  0  0  0  0  0  0  0  0  0  0  0
    1.9293   -2.2639   -1.4595 H   0  0  0  0  0  0  0  0  0  0  0  0
    1.4809    1.2961    2.1364 H   0  0  0  0  0  0  0  0  0  0  0  0
    1.9875    1.2919   -1.8711 H   0  0  0  0  0  0  0  0  0  0  0  0
   -2.1718    1.5077    1.0043 H   0  0  0  0  0  0  0  0  0  0  0  0
   -4.1340   -0.5766    0.1988 H   0  0  0  0  0  0  0  0  0  0  0  0
  1  2  1  0  0  0  0
  2  3  1  0  0  0  0
  2  4  1  0  0  0  0
  4  5  1  0  0  0  0
  4  6  1  0  0  0  0
  6  7  1  0  0  0  0
  6  8  1  0  0  0  0
  8  9  1  0  0  0  0
  8 10  1  0  0  0  0
 10 11  1  0  0  0  0
  2 12  1  0  0  0  0
 10 12  1  0  0  0  0
 10 13  1  0  0  0  0
  8 14  1  0  0  0  0
  6 15  1  0  0  0  0
  4 16  1  0  0  0  0
  1 17  1  0  0  0  0
  1 18  1  0  0  0  0
  1 19  1  0  0  0  0
 13 20  1  0  0  0  0
 14 21  1  0  0  0  0
 15 22  1  0  0  0  0
 16 23  1  0  0  0  0
 17 24  1  0  0  0  0
M  END
