10
CONF1
C -1.3660903710 -0.8764547498 0.2288184863
S 0.0001175041 0.1386412504 -0.4286481880
O 0.0017132498 1.4380455544 0.4048752888
C 1.3640689223 -0.8796501073 0.2285463253
H -1.2524047686 -0.9650685454 1.3128680586
H -1.3386405544 -1.8601339546 -0.2490851581
H -2.3000733465 -0.3678468205 -0.0215501330
H 1.2512989771 -0.9663386181 1.3128503621
H 2.2993265236 -0.3742672413 -0.0235762425
H 1.3330588225 -1.8639427567 -0.2478731726
10
CONF2
C -1.3882766607 -0.8808640613 0.2232215873
S 0.0059650793 0.1408339643 -0.4269081628
O 0.0138657094 1.4427470565 0.4041756561
C 1.3777200063 -0.8698599379 0.2276283824
H -2.0513722224 -1.1399778375 -0.6050304967
H -1.9161010929 -0.2489142710 0.9417518061
H -1.0142506349 -1.7822832026 0.7117678699
H 1.3489607877 -1.8533292838 -0.2509373033
H 1.2663994661 -0.9596638323 1.3118677797
H 2.3089490554 -0.3580662423 -0.0265898031
