 xtb: 6.7.1 (edcfbbe)
          04032521383D

 11 10  0     0  0            999 V2000
    0.4121    1.8946    0.1878 C   0  0  0  0  0  0  0  0  0  0  0  0
    0.5628    0.5091    0.7834 C   0  0  0  0  0  0  0  0  0  0  0  0
    1.1053    0.5483    1.7307 H   0  0  0  0  0  0  0  0  0  0  0  0
   -0.7569   -0.2020    1.0176 C   0  0  0  0  0  0  0  0  0  0  0  0
   -1.6765   -0.4199   -0.5100 Cl  0  0  0  0  0  0  0  0  0  0  0  0
    1.5960   -0.5092   -0.3051 Cl  0  0  0  0  0  0  0  0  0  0  0  0
   -0.1484    2.5201    0.8771 H   0  0  0  0  0  0  0  0  0  0  0  0
    1.3876    2.3403    0.0185 H   0  0  0  0  0  0  0  0  0  0  0  0
   -0.1210    1.8463   -0.7582 H   0  0  0  0  0  0  0  0  0  0  0  0
   -0.6033   -1.1987    1.4269 H   0  0  0  0  0  0  0  0  0  0  0  0
   -1.3879    0.3903    1.6780 H   0  0  0  0  0  0  0  0  0  0  0  0
  1  2  1  0  0  0  0
  2  3  1  0  0  0  0
  2  4  1  0  0  0  0
  4  5  1  0  0  0  0
  2  6  1  0  0  0  0
  1  7  1  0  0  0  0
  1  8  1  0  0  0  0
  1  9  1  0  0  0  0
  4 10  1  0  0  0  0
  4 11  1  0  0  0  0
M  END
