 xtb: 6.7.1 (edcfbbe)
          04062502133D

 24 25  0     0  0            999 V2000
   -3.4306   -1.1196    0.5799 C   0  0  0  0  0  0  0  0  0  0  0  0
   -2.1972   -1.2372   -0.3162 C   0  0  0  0  0  0  0  0  0  0  0  0
   -1.2228   -0.0961   -0.1581 C   0  0  0  0  0  0  0  0  0  0  0  0
   -1.6992    1.1895   -0.0715 C   0  0  0  0  0  0  0  0  0  0  0  0
   -0.8490    2.2898    0.0937 C   0  0  0  0  0  0  0  0  0  0  0  0
    0.5006    2.1053    0.1734 C   0  0  0  0  0  0  0  0  0  0  0  0
    1.0465    0.8103    0.0654 C   0  0  0  0  0  0  0  0  0  0  0  0
    0.1853   -0.3096   -0.1140 C   0  0  0  0  0  0  0  0  0  0  0  0
    0.7919   -1.5789   -0.2523 C   0  0  0  0  0  0  0  0  0  0  0  0
    2.1490   -1.7352   -0.1978 C   0  0  0  0  0  0  0  0  0  0  0  0
    2.9881   -0.6296   -0.0019 C   0  0  0  0  0  0  0  0  0  0  0  0
    2.4431    0.6156    0.1239 C   0  0  0  0  0  0  0  0  0  0  0  0
   -4.0122   -2.0366    0.5232 H   0  0  0  0  0  0  0  0  0  0  0  0
   -4.0735   -0.2976    0.2789 H   0  0  0  0  0  0  0  0  0  0  0  0
   -3.1311   -0.9634    1.6137 H   0  0  0  0  0  0  0  0  0  0  0  0
   -2.5155   -1.2833   -1.3621 H   0  0  0  0  0  0  0  0  0  0  0  0
   -1.7086   -2.1809   -0.0815 H   0  0  0  0  0  0  0  0  0  0  0  0
   -2.7608    1.3726   -0.1313 H   0  0  0  0  0  0  0  0  0  0  0  0
   -1.2737    3.2806    0.1615 H   0  0  0  0  0  0  0  0  0  0  0  0
    1.1697    2.9423    0.3109 H   0  0  0  0  0  0  0  0  0  0  0  0
    0.1809   -2.4523   -0.4158 H   0  0  0  0  0  0  0  0  0  0  0  0
    2.5835   -2.7178   -0.3081 H   0  0  0  0  0  0  0  0  0  0  0  0
    4.0578   -0.7701    0.0430 H   0  0  0  0  0  0  0  0  0  0  0  0
    3.0747    1.4809    0.2668 H   0  0  0  0  0  0  0  0  0  0  0  0
  1  2  1  0  0  0  0
  2  3  1  0  0  0  0
  3  4  2  0  0  0  0
  4  5  4  0  0  0  0
  5  6  2  0  0  0  0
  6  7  4  0  0  0  0
  3  8  4  0  0  0  0
  7  8  4  0  0  0  0
  8  9  4  0  0  0  0
  9 10  2  0  0  0  0
 10 11  4  0  0  0  0
  7 12  4  0  0  0  0
 11 12  2  0  0  0  0
  1 13  1  0  0  0  0
  1 14  1  0  0  0  0
  1 15  1  0  0  0  0
  2 16  1  0  0  0  0
  2 17  1  0  0  0  0
  4 18  1  0  0  0  0
  5 19  1  0  0  0  0
  6 20  1  0  0  0  0
  9 21  1  0  0  0  0
 10 22  1  0  0  0  0
 11 23  1  0  0  0  0
 12 24  1  0  0  0  0
M  END
