13
 xtb: 6.7.1 (edcfbbe)
C            0.85151071058057       -1.83541554687709        0.00000523014696
C            1.87780116614177       -0.90011802370600       -0.00002214733942
C            1.56242414762731        0.45889459112114       -0.00001707209091
C            0.23271961260148        0.88405354437401        0.00003061562465
C           -0.76220741502223       -0.08394319321955        0.00005974907053
C           -0.48663538638154       -1.44462667098165        0.00004063614989
Cl          -2.44434560258769        0.44730049838222        0.00011240302545
O            2.60676683110854        1.34905330054542       -0.00004824890521
H            1.09312679080831       -2.89323745710092       -0.00000580277483
H            2.91743325704941       -1.20819325273567       -0.00005632766313
H           -0.00738132839552        1.94209532902920        0.00003729814224
H           -1.28486411471018       -2.17660528570311        0.00005933322172
H            2.26528942791606        2.25478561207248       -0.00010215604711
