27
 xtb: 6.7.1 (edcfbbe)
C           -3.44010056153672        0.63711110814735       -0.08372630614207
C           -1.94786918181563        0.49897491277746       -0.02028980653232
C           -1.11321861727608        1.36412129959769       -0.60756351176826
C            0.38110683848237        1.24927844461224       -0.60321639725719
C            0.86494856102493       -0.14082733384154       -0.15066062480215
H            0.63068029344956       -0.84228207452370       -0.96589084504898
C            0.06457168658518       -0.55822519780683        1.08017690322484
C           -1.41747518945860       -0.67838049635510        0.76439724024015
H           -1.98073022145255       -0.75206441499674        1.70666622114185
O           -1.60633079920620       -1.92415752563143        0.03029319878561
C            2.36673081609692       -0.15977155351890        0.02668184051835
C            2.96803364286685       -0.37258130896688        1.20196479973933
C            3.16375968755082        0.09422559779878       -1.22203793060037
H           -3.86765412440337        0.71689504473841        0.92361712895474
H           -3.90351998511067       -0.24133191338830       -0.55218092434183
H           -3.73625145160290        1.51836615285597       -0.65919089497547
H           -1.53015195253855        2.22169732907861       -1.13573090815693
H            0.75657531427629        1.47743276004334       -1.60717727394308
H            0.80971752031138        2.01763448628727        0.05979747292473
H            0.41690140746976       -1.51552734195192        1.47909238007461
H            0.18645853025911        0.19190319532006        1.87181314488097
H           -2.55468916174925       -2.04029202332398       -0.11125067931405
H            4.05243759094362       -0.37054422982761        1.27779006550962
H            2.41242986650651       -0.54856305699263        2.11725761309061
H            2.83649711816387       -0.56781367943972       -2.03297364620863
H            3.02156702607543        1.12094090171945       -1.57993493939100
H            4.23251871901948       -0.05890005135992       -1.05186489721298
