 xtb: 6.7.1 (edcfbbe)
          04032521113D

 24 25  0     0  0            999 V2000
   -3.4417   -1.1709    0.0001 C   0  0  0  0  0  0  0  0  0  0  0  0
   -2.0501   -0.6168   -0.0000 C   0  0  0  0  0  0  0  0  0  0  0  0
   -1.8668    0.7802   -0.0000 C   0  0  0  0  0  0  0  0  0  0  0  0
   -0.6258    1.3590   -0.0000 C   0  0  0  0  0  0  0  0  0  0  0  0
    0.5276    0.5266   -0.0000 C   0  0  0  0  0  0  0  0  0  0  0  0
    1.8419    1.0395    0.0001 C   0  0  0  0  0  0  0  0  0  0  0  0
    2.9263    0.2058    0.0001 C   0  0  0  0  0  0  0  0  0  0  0  0
    2.7528   -1.1854    0.0000 C   0  0  0  0  0  0  0  0  0  0  0  0
    1.4934   -1.7157   -0.0000 C   0  0  0  0  0  0  0  0  0  0  0  0
    0.3548   -0.8832   -0.0000 C   0  0  0  0  0  0  0  0  0  0  0  0
   -0.9470   -1.4258   -0.0000 C   0  0  0  0  0  0  0  0  0  0  0  0
   -0.4894    2.8521   -0.0001 C   0  0  0  0  0  0  0  0  0  0  0  0
   -3.9831   -0.8278    0.8804 H   0  0  0  0  0  0  0  0  0  0  0  0
   -3.9838   -0.8266   -0.8794 H   0  0  0  0  0  0  0  0  0  0  0  0
   -3.4273   -2.2574   -0.0007 H   0  0  0  0  0  0  0  0  0  0  0  0
   -2.7466    1.4090   -0.0001 H   0  0  0  0  0  0  0  0  0  0  0  0
    1.9937    2.1074    0.0002 H   0  0  0  0  0  0  0  0  0  0  0  0
    3.9258    0.6155    0.0002 H   0  0  0  0  0  0  0  0  0  0  0  0
    3.6189   -1.8308    0.0000 H   0  0  0  0  0  0  0  0  0  0  0  0
    1.3486   -2.7869   -0.0001 H   0  0  0  0  0  0  0  0  0  0  0  0
   -1.0565   -2.5015   -0.0001 H   0  0  0  0  0  0  0  0  0  0  0  0
    0.0536    3.1873    0.8822 H   0  0  0  0  0  0  0  0  0  0  0  0
    0.0543    3.1872   -0.8820 H   0  0  0  0  0  0  0  0  0  0  0  0
   -1.4699    3.3209   -0.0005 H   0  0  0  0  0  0  0  0  0  0  0  0
  1  2  1  0  0  0  0
  2  3  4  0  0  0  0
  3  4  2  0  0  0  0
  4  5  4  0  0  0  0
  5  6  4  0  0  0  0
  6  7  2  0  0  0  0
  7  8  4  0  0  0  0
  8  9  2  0  0  0  0
  5 10  4  0  0  0  0
  9 10  4  0  0  0  0
  2 11  2  0  0  0  0
 10 11  4  0  0  0  0
  4 12  1  0  0  0  0
  1 13  1  0  0  0  0
  1 14  1  0  0  0  0
  1 15  1  0  0  0  0
  3 16  1  0  0  0  0
  6 17  1  0  0  0  0
  7 18  1  0  0  0  0
  8 19  1  0  0  0  0
  9 20  1  0  0  0  0
 11 21  1  0  0  0  0
 12 22  1  0  0  0  0
 12 23  1  0  0  0  0
 12 24  1  0  0  0  0
M  END
