 xtb: 6.7.1 (edcfbbe)
          04062518003D

 24 24  0     0  0            999 V2000
   -1.9520   -1.2596   -0.3549 C   0  0  0  0  0  0  0  0  0  0  0  0
   -1.2623   -0.4283    0.7409 C   0  0  0  0  0  0  0  0  0  0  0  0
   -1.9389   -0.4004    1.6017 H   0  0  0  0  0  0  0  0  0  0  0  0
   -0.9825    1.0185    0.2758 C   0  0  0  0  0  0  0  0  0  0  0  0
   -1.3754    1.1550   -0.7363 H   0  0  0  0  0  0  0  0  0  0  0  0
    0.5300    1.2760    0.2337 C   0  0  0  0  0  0  0  0  0  0  0  0
    0.9135    1.3752    1.2641 H   0  0  0  0  0  0  0  0  0  0  0  0
    1.2375    0.0880   -0.4257 C   0  0  0  0  0  0  0  0  0  0  0  0
    0.7949   -0.0942   -1.4142 H   0  0  0  0  0  0  0  0  0  0  0  0
    1.0271   -1.1588    0.4432 C   0  0  0  0  0  0  0  0  0  0  0  0
    1.8778   -1.2288    1.1386 H   0  0  0  0  0  0  0  0  0  0  0  0
   -0.0992   -1.0481    1.2830 O   0  0  0  0  0  0  0  0  0  0  0  0
    0.9599   -2.2764   -0.3775 O   0  0  0  0  0  0  0  0  0  0  0  0
    2.6204    0.3068   -0.5307 O   0  0  0  0  0  0  0  0  0  0  0  0
    0.8416    2.4318   -0.5049 O   0  0  0  0  0  0  0  0  0  0  0  0
   -1.6382    1.9822    1.0634 O   0  0  0  0  0  0  0  0  0  0  0  0
   -1.4003   -0.9853   -1.6232 O   0  0  0  0  0  0  0  0  0  0  0  0
   -3.0178   -0.9945   -0.3487 H   0  0  0  0  0  0  0  0  0  0  0  0
   -1.8404   -2.3181   -0.0979 H   0  0  0  0  0  0  0  0  0  0  0  0
    1.0401   -3.0847    0.1517 H   0  0  0  0  0  0  0  0  0  0  0  0
    2.7508    1.1593   -0.9757 H   0  0  0  0  0  0  0  0  0  0  0  0
    0.2493    3.1475   -0.2301 H   0  0  0  0  0  0  0  0  0  0  0  0
   -1.3599    1.8970    1.9875 H   0  0  0  0  0  0  0  0  0  0  0  0
   -1.7697   -1.6042   -2.2681 H   0  0  0  0  0  0  0  0  0  0  0  0
  1  2  1  0  0  0  0
  2  3  1  0  0  0  0
  2  4  1  0  0  0  0
  4  5  1  0  0  0  0
  4  6  1  0  0  0  0
  6  7  1  0  0  0  0
  6  8  1  0  0  0  0
  8  9  1  0  0  0  0
  8 10  1  0  0  0  0
 10 11  1  0  0  0  0
  2 12  1  0  0  0  0
 10 12  1  0  0  0  0
 10 13  1  0  0  0  0
  8 14  1  0  0  0  0
  6 15  1  0  0  0  0
  4 16  1  0  0  0  0
  1 17  1  0  0  0  0
  1 18  1  0  0  0  0
  1 19  1  0  0  0  0
 13 20  1  0  0  0  0
 14 21  1  0  0  0  0
 15 22  1  0  0  0  0
 16 23  1  0  0  0  0
 17 24  1  0  0  0  0
M  END
