 xtb: 6.7.1 (edcfbbe)
          04062518003D

 24 24  0     0  0            999 V2000
   -2.5624   -0.6732   -0.3154 C   0  0  0  0  0  0  0  0  0  0  0  0
   -1.1805   -0.2931    0.2255 C   0  0  0  0  0  0  0  0  0  0  0  0
   -1.2239   -0.2431    1.3237 H   0  0  0  0  0  0  0  0  0  0  0  0
   -0.7226    1.0693   -0.3123 C   0  0  0  0  0  0  0  0  0  0  0  0
   -0.7465    1.0322   -1.4154 H   0  0  0  0  0  0  0  0  0  0  0  0
    0.7176    1.3378    0.1483 C   0  0  0  0  0  0  0  0  0  0  0  0
    0.7233    1.4663    1.2371 H   0  0  0  0  0  0  0  0  0  0  0  0
    1.6363    0.1617   -0.2136 C   0  0  0  0  0  0  0  0  0  0  0  0
    1.7083    0.0821   -1.3125 H   0  0  0  0  0  0  0  0  0  0  0  0
    1.0299   -1.1509    0.3242 C   0  0  0  0  0  0  0  0  0  0  0  0
    1.0238   -1.1090    1.4250 H   0  0  0  0  0  0  0  0  0  0  0  0
   -0.2807   -1.3105   -0.1765 O   0  0  0  0  0  0  0  0  0  0  0  0
    1.7552   -2.2696   -0.0115 O   0  0  0  0  0  0  0  0  0  0  0  0
    2.9133    0.3189    0.3454 O   0  0  0  0  0  0  0  0  0  0  0  0
    1.2097    2.5516   -0.3680 O   0  0  0  0  0  0  0  0  0  0  0  0
   -1.6038    2.0552    0.1560 O   0  0  0  0  0  0  0  0  0  0  0  0
   -3.0722   -1.8286    0.2936 O   0  0  0  0  0  0  0  0  0  0  0  0
   -2.4878   -0.8074   -1.4019 H   0  0  0  0  0  0  0  0  0  0  0  0
   -3.2594    0.1360   -0.0936 H   0  0  0  0  0  0  0  0  0  0  0  0
    1.7254   -2.4089   -0.9718 H   0  0  0  0  0  0  0  0  0  0  0  0
    3.1918    1.2424    0.2323 H   0  0  0  0  0  0  0  0  0  0  0  0
    1.2248    2.5178   -1.3371 H   0  0  0  0  0  0  0  0  0  0  0  0
   -1.1806    2.9242    0.0623 H   0  0  0  0  0  0  0  0  0  0  0  0
   -2.4362   -2.5478    0.1649 H   0  0  0  0  0  0  0  0  0  0  0  0
  1  2  1  0  0  0  0
  2  3  1  0  0  0  0
  2  4  1  0  0  0  0
  4  5  1  0  0  0  0
  4  6  1  0  0  0  0
  6  7  1  0  0  0  0
  6  8  1  0  0  0  0
  8  9  1  0  0  0  0
  8 10  1  0  0  0  0
 10 11  1  0  0  0  0
  2 12  1  0  0  0  0
 10 12  1  0  0  0  0
 10 13  1  0  0  0  0
  8 14  1  0  0  0  0
  6 15  1  0  0  0  0
  4 16  1  0  0  0  0
  1 17  1  0  0  0  0
  1 18  1  0  0  0  0
  1 19  1  0  0  0  0
 13 20  1  0  0  0  0
 14 21  1  0  0  0  0
 15 22  1  0  0  0  0
 16 23  1  0  0  0  0
 17 24  1  0  0  0  0
M  END
