24
 xtb: 6.7.1 (edcfbbe)
C           -2.57784257167601       -0.61597621490004       -0.36588249820595
C           -1.20834852906739       -0.28823601990536        0.17936893647627
H           -1.24374151241515       -0.25838905947775        1.28080870386202
C           -0.69067898433714        1.05183426108033       -0.34645828248999
H           -0.69841755896893        1.03082745403233       -1.44791631960028
C            0.73664598874061        1.27760949932987        0.13539665130458
H            0.72004052826855        1.39721209449793        1.23033849370025
C            1.62752697736654        0.09310816999888       -0.20979964740017
H            1.72497735515739        0.00566662717712       -1.30225285617348
C            0.99186040303497       -1.18853423194084        0.31937544583619
H            0.91153974275462       -1.16081579635543        1.41856186125045
O           -0.31565534390266       -1.33116254899988       -0.24793291592049
O            1.76810753086338       -2.27653055086205       -0.10689029322907
O            2.90097751184662        0.32867249812956        0.39664388516333
O            1.20058376065288        2.48514027283872       -0.48065807312213
O           -1.55366740204929        2.08410381800141        0.13858818197516
O           -3.04504676418126       -1.81286872581458        0.27411432468676
H           -2.50985729287599       -0.75641358086794       -1.45383808027552
H           -3.25352262317722        0.22201500803012       -0.15961683088884
H            1.56570023644654       -3.03504214051417        0.45765957879195
H            3.51933212300904       -0.31965377324292        0.03598823819782
H            2.02526477204502        2.73747746557487       -0.04558588746359
H           -1.15525390598569        2.92725309496429       -0.11841131944505
H           -3.91517004613282       -2.01276228525846       -0.09287325168785
