 xtb: 6.7.1 (edcfbbe)
          04062520243D

 27 27  0     0  0            999 V2000
   -3.4485    0.5917   -0.0578 C   0  0  0  0  0  0  0  0  0  0  0  0
   -1.9498    0.5161   -0.0431 C   0  0  0  0  0  0  0  0  0  0  0  0
   -1.1824    1.4056   -0.6580 C   0  0  0  0  0  0  0  0  0  0  0  0
    0.3133    1.3869   -0.6606 C   0  0  0  0  0  0  0  0  0  0  0  0
    0.8565    0.0186   -0.2547 C   0  0  0  0  0  0  0  0  0  0  0  0
    0.5787   -0.7052   -1.0317 H   0  0  0  0  0  0  0  0  0  0  0  0
    0.1294   -0.4148    1.0242 C   0  0  0  0  0  0  0  0  0  0  0  0
   -1.3506   -0.6453    0.7201 C   0  0  0  0  0  0  0  0  0  0  0  0
   -1.8965   -0.7666    1.6722 H   0  0  0  0  0  0  0  0  0  0  0  0
   -1.4423   -1.8658   -0.0107 O   0  0  0  0  0  0  0  0  0  0  0  0
    2.3560   -0.0430   -0.0968 C   0  0  0  0  0  0  0  0  0  0  0  0
    3.1631    1.0028   -0.1876 C   0  0  0  0  0  0  0  0  0  0  0  0
    2.9090   -1.4158    0.1663 C   0  0  0  0  0  0  0  0  0  0  0  0
   -3.8796   -0.2707   -0.5652 H   0  0  0  0  0  0  0  0  0  0  0  0
   -3.7800    1.4893   -0.5723 H   0  0  0  0  0  0  0  0  0  0  0  0
   -3.8341    0.6072    0.9610 H   0  0  0  0  0  0  0  0  0  0  0  0
   -1.6403    2.2336   -1.1838 H   0  0  0  0  0  0  0  0  0  0  0  0
    0.6809    1.6609   -1.6517 H   0  0  0  0  0  0  0  0  0  0  0  0
    0.6625    2.1484    0.0442 H   0  0  0  0  0  0  0  0  0  0  0  0
    0.5390   -1.3490    1.4060 H   0  0  0  0  0  0  0  0  0  0  0  0
    0.2297    0.3570    1.7882 H   0  0  0  0  0  0  0  0  0  0  0  0
   -2.3636   -2.0210   -0.2539 H   0  0  0  0  0  0  0  0  0  0  0  0
    4.2294    0.8910   -0.0792 H   0  0  0  0  0  0  0  0  0  0  0  0
    2.8185    2.0041   -0.3704 H   0  0  0  0  0  0  0  0  0  0  0  0
    2.8454   -1.6511    1.2282 H   0  0  0  0  0  0  0  0  0  0  0  0
    2.3451   -2.1693   -0.3790 H   0  0  0  0  0  0  0  0  0  0  0  0
    3.9542   -1.4720   -0.1263 H   0  0  0  0  0  0  0  0  0  0  0  0
  1  2  1  0  0  0  0
  2  3  2  0  0  0  0
  3  4  1  0  0  0  0
  4  5  1  0  0  0  0
  5  6  1  0  0  0  0
  5  7  1  0  0  0  0
  2  8  1  0  0  0  0
  7  8  1  0  0  0  0
  8  9  1  0  0  0  0
  8 10  1  0  0  0  0
  5 11  1  0  0  0  0
 11 12  2  0  0  0  0
 11 13  1  0  0  0  0
  1 14  1  0  0  0  0
  1 15  1  0  0  0  0
  1 16  1  0  0  0  0
  3 17  1  0  0  0  0
  4 18  1  0  0  0  0
  4 19  1  0  0  0  0
  7 20  1  0  0  0  0
  7 21  1  0  0  0  0
 10 22  1  0  0  0  0
 12 23  1  0  0  0  0
 12 24  1  0  0  0  0
 13 25  1  0  0  0  0
 13 26  1  0  0  0  0
 13 27  1  0  0  0  0
M  END
