 xtb: 6.7.1 (edcfbbe)
          04062518003D

 24 24  0     0  0            999 V2000
   -1.7101   -1.3768   -0.5190 C   0  0  0  0  0  0  0  0  0  0  0  0
   -1.1202   -0.4919    0.5984 C   0  0  0  0  0  0  0  0  0  0  0  0
   -1.8316   -0.4319    1.4304 H   0  0  0  0  0  0  0  0  0  0  0  0
   -0.8583    0.9510    0.0903 C   0  0  0  0  0  0  0  0  0  0  0  0
   -1.1534    1.0069   -0.9677 H   0  0  0  0  0  0  0  0  0  0  0  0
    0.6339    1.2748    0.1997 C   0  0  0  0  0  0  0  0  0  0  0  0
    0.8884    1.4009    1.2578 H   0  0  0  0  0  0  0  0  0  0  0  0
    1.4573    0.1161   -0.3826 C   0  0  0  0  0  0  0  0  0  0  0  0
    1.1593   -0.0606   -1.4296 H   0  0  0  0  0  0  0  0  0  0  0  0
    1.1869   -1.1689    0.4142 C   0  0  0  0  0  0  0  0  0  0  0  0
    1.9994   -1.2914    1.1441 H   0  0  0  0  0  0  0  0  0  0  0  0
    0.0228   -1.0860    1.2005 O   0  0  0  0  0  0  0  0  0  0  0  0
    1.1437   -2.2375   -0.4780 O   0  0  0  0  0  0  0  0  0  0  0  0
    2.8307    0.3977   -0.3232 O   0  0  0  0  0  0  0  0  0  0  0  0
    0.9900    2.4821   -0.4209 O   0  0  0  0  0  0  0  0  0  0  0  0
   -1.5619    1.9121    0.8412 O   0  0  0  0  0  0  0  0  0  0  0  0
   -2.9165   -0.8512   -1.0144 O   0  0  0  0  0  0  0  0  0  0  0  0
   -1.8393   -2.3930   -0.1343 H   0  0  0  0  0  0  0  0  0  0  0  0
   -1.0164   -1.4159   -1.3620 H   0  0  0  0  0  0  0  0  0  0  0  0
    1.2075   -3.0791   -0.0015 H   0  0  0  0  0  0  0  0  0  0  0  0
    2.9472    1.3490   -0.4913 H   0  0  0  0  0  0  0  0  0  0  0  0
    0.5827    2.5371   -1.2985 H   0  0  0  0  0  0  0  0  0  0  0  0
   -2.4899    1.9291    0.5685 H   0  0  0  0  0  0  0  0  0  0  0  0
   -3.6363   -1.0574   -0.4017 H   0  0  0  0  0  0  0  0  0  0  0  0
  1  2  1  0  0  0  0
  2  3  1  0  0  0  0
  2  4  1  0  0  0  0
  4  5  1  0  0  0  0
  4  6  1  0  0  0  0
  6  7  1  0  0  0  0
  6  8  1  0  0  0  0
  8  9  1  0  0  0  0
  8 10  1  0  0  0  0
 10 11  1  0  0  0  0
  2 12  1  0  0  0  0
 10 12  1  0  0  0  0
 10 13  1  0  0  0  0
  8 14  1  0  0  0  0
  6 15  1  0  0  0  0
  4 16  1  0  0  0  0
  1 17  1  0  0  0  0
  1 18  1  0  0  0  0
  1 19  1  0  0  0  0
 13 20  1  0  0  0  0
 14 21  1  0  0  0  0
 15 22  1  0  0  0  0
 16 23  1  0  0  0  0
 17 24  1  0  0  0  0
M  END
