 xtb: 6.7.1 (edcfbbe)
          04062520053D

 27 27  0     0  0            999 V2000
   -2.6763    0.3900    1.2396 C   0  0  0  0  0  0  0  0  0  0  0  0
   -1.4591    0.4147    0.3684 C   0  0  0  0  0  0  0  0  0  0  0  0
   -0.8908    1.5381   -0.0482 C   0  0  0  0  0  0  0  0  0  0  0  0
    0.3310    1.6216   -0.9104 C   0  0  0  0  0  0  0  0  0  0  0  0
    1.0846    0.2933   -1.0090 C   0  0  0  0  0  0  0  0  0  0  0  0
    1.7085    0.3167   -1.9099 H   0  0  0  0  0  0  0  0  0  0  0  0
    0.0553   -0.8302   -1.1925 C   0  0  0  0  0  0  0  0  0  0  0  0
   -0.8737   -0.9354    0.0189 C   0  0  0  0  0  0  0  0  0  0  0  0
   -0.2949   -1.2958    0.8898 H   0  0  0  0  0  0  0  0  0  0  0  0
   -1.9376   -1.8427   -0.2291 O   0  0  0  0  0  0  0  0  0  0  0  0
    2.0013   -0.0142    0.1602 C   0  0  0  0  0  0  0  0  0  0  0  0
    2.9140   -0.9687    0.0442 C   0  0  0  0  0  0  0  0  0  0  0  0
    1.8667    0.7747    1.4264 C   0  0  0  0  0  0  0  0  0  0  0  0
   -3.0343    1.3969    1.4343 H   0  0  0  0  0  0  0  0  0  0  0  0
   -2.4475   -0.0993    2.1859 H   0  0  0  0  0  0  0  0  0  0  0  0
   -3.4611   -0.1874    0.7547 H   0  0  0  0  0  0  0  0  0  0  0  0
   -1.3294    2.4880    0.2281 H   0  0  0  0  0  0  0  0  0  0  0  0
    0.0155    1.9207   -1.9159 H   0  0  0  0  0  0  0  0  0  0  0  0
    0.9881    2.4108   -0.5415 H   0  0  0  0  0  0  0  0  0  0  0  0
   -0.5580   -0.6190   -2.0715 H   0  0  0  0  0  0  0  0  0  0  0  0
    0.5662   -1.7828   -1.3465 H   0  0  0  0  0  0  0  0  0  0  0  0
   -1.5658   -2.7047   -0.4559 H   0  0  0  0  0  0  0  0  0  0  0  0
    3.5720   -1.2301    0.8554 H   0  0  0  0  0  0  0  0  0  0  0  0
    3.0440   -1.5277   -0.8676 H   0  0  0  0  0  0  0  0  0  0  0  0
    2.4265    0.3002    2.2281 H   0  0  0  0  0  0  0  0  0  0  0  0
    2.2641    1.7792    1.2852 H   0  0  0  0  0  0  0  0  0  0  0  0
    0.8246    0.8681    1.7210 H   0  0  0  0  0  0  0  0  0  0  0  0
  1  2  1  0  0  0  0
  2  3  2  0  0  0  0
  3  4  1  0  0  0  0
  4  5  1  0  0  0  0
  5  6  1  0  0  0  0
  5  7  1  0  0  0  0
  2  8  1  0  0  0  0
  7  8  1  0  0  0  0
  8  9  1  0  0  0  0
  8 10  1  0  0  0  0
  5 11  1  0  0  0  0
 11 12  2  0  0  0  0
 11 13  1  0  0  0  0
  1 14  1  0  0  0  0
  1 15  1  0  0  0  0
  1 16  1  0  0  0  0
  3 17  1  0  0  0  0
  4 18  1  0  0  0  0
  4 19  1  0  0  0  0
  7 20  1  0  0  0  0
  7 21  1  0  0  0  0
 10 22  1  0  0  0  0
 12 23  1  0  0  0  0
 12 24  1  0  0  0  0
 13 25  1  0  0  0  0
 13 26  1  0  0  0  0
 13 27  1  0  0  0  0
M  END
