 xtb: 6.7.1 (edcfbbe)
          04032522133D

 11 10  0     0  0            999 V2000
    1.6867   -1.0678    0.1692 C   0  0  0  0  0  0  0  0  0  0  0  0
    1.0385    0.2565   -0.2198 C   0  0  0  0  0  0  0  0  0  0  0  0
   -0.4590    0.3414   -0.0411 C   0  0  0  0  0  0  0  0  0  0  0  0
   -1.0499    1.4006   -0.0739 O   0  0  0  0  0  0  0  0  0  0  0  0
   -1.1382   -0.7839    0.1417 O   0  0  0  0  0  0  0  0  0  0  0  0
    2.7659   -0.9667    0.0946 H   0  0  0  0  0  0  0  0  0  0  0  0
    1.4489   -1.3326    1.1970 H   0  0  0  0  0  0  0  0  0  0  0  0
    1.3905   -1.8731   -0.4989 H   0  0  0  0  0  0  0  0  0  0  0  0
    1.4643    1.0813    0.3543 H   0  0  0  0  0  0  0  0  0  0  0  0
    1.2323    0.4802   -1.2723 H   0  0  0  0  0  0  0  0  0  0  0  0
   -0.5738   -1.5801    0.1427 H   0  0  0  0  0  0  0  0  0  0  0  0
  1  2  1  0  0  0  0
  2  3  1  0  0  0  0
  3  4  2  0  0  0  0
  3  5  1  0  0  0  0
  1  6  1  0  0  0  0
  1  7  1  0  0  0  0
  1  8  1  0  0  0  0
  2  9  1  0  0  0  0
  2 10  1  0  0  0  0
  5 11  1  0  0  0  0
M  END
