 xtb: 6.7.1 (edcfbbe)
          04032521373D

 24 24  0     0  0            999 V2000
    2.1062   -2.1032    0.3918 C   0  0  0  0  0  0  0  0  0  0  0  0
    1.1627   -0.9763    0.1275 C   0  0  0  0  0  0  0  0  0  0  0  0
    1.4749    0.2845    0.4727 C   0  0  0  0  0  0  0  0  0  0  0  0
    0.6206    1.4190    0.1894 C   0  0  0  0  0  0  0  0  0  0  0  0
    0.8942    2.5577    0.5645 O   0  0  0  0  0  0  0  0  0  0  0  0
   -0.6060    1.1345   -0.6422 C   0  0  0  0  0  0  0  0  0  0  0  0
   -1.2122   -0.2421   -0.3512 C   0  0  0  0  0  0  0  0  0  0  0  0
   -0.1229   -1.3039   -0.5557 C   0  0  0  0  0  0  0  0  0  0  0  0
   -2.3738   -0.5064   -1.3111 C   0  0  0  0  0  0  0  0  0  0  0  0
   -1.7275   -0.2897    1.0892 C   0  0  0  0  0  0  0  0  0  0  0  0
    3.0233   -1.9584   -0.1764 H   0  0  0  0  0  0  0  0  0  0  0  0
    1.6711   -3.0589    0.1169 H   0  0  0  0  0  0  0  0  0  0  0  0
    2.3805   -2.1263    1.4443 H   0  0  0  0  0  0  0  0  0  0  0  0
    2.3998    0.5080    0.9866 H   0  0  0  0  0  0  0  0  0  0  0  0
   -1.3331    1.9329   -0.4823 H   0  0  0  0  0  0  0  0  0  0  0  0
   -0.2885    1.1807   -1.6886 H   0  0  0  0  0  0  0  0  0  0  0  0
   -0.4847   -2.2732   -0.2074 H   0  0  0  0  0  0  0  0  0  0  0  0
    0.0869   -1.4050   -1.6259 H   0  0  0  0  0  0  0  0  0  0  0  0
   -3.1565    0.2349   -1.1708 H   0  0  0  0  0  0  0  0  0  0  0  0
   -2.7982   -1.4905   -1.1289 H   0  0  0  0  0  0  0  0  0  0  0  0
   -2.0406   -0.4596   -2.3451 H   0  0  0  0  0  0  0  0  0  0  0  0
   -0.9195   -0.1132    1.7958 H   0  0  0  0  0  0  0  0  0  0  0  0
   -2.1708   -1.2592    1.3030 H   0  0  0  0  0  0  0  0  0  0  0  0
   -2.4850    0.4750    1.2448 H   0  0  0  0  0  0  0  0  0  0  0  0
  1  2  1  0  0  0  0
  2  3  2  0  0  0  0
  3  4  1  0  0  0  0
  4  5  2  0  0  0  0
  4  6  1  0  0  0  0
  6  7  1  0  0  0  0
  2  8  1  0  0  0  0
  7  8  1  0  0  0  0
  7  9  1  0  0  0  0
  7 10  1  0  0  0  0
  1 11  1  0  0  0  0
  1 12  1  0  0  0  0
  1 13  1  0  0  0  0
  3 14  1  0  0  0  0
  6 15  1  0  0  0  0
  6 16  1  0  0  0  0
  8 17  1  0  0  0  0
  8 18  1  0  0  0  0
  9 19  1  0  0  0  0
  9 20  1  0  0  0  0
  9 21  1  0  0  0  0
 10 22  1  0  0  0  0
 10 23  1  0  0  0  0
 10 24  1  0  0  0  0
M  END
