 xtb: 6.7.1 (edcfbbe)
          04062518003D

 24 24  0     0  0            999 V2000
   -2.3798   -1.1785   -0.3200 C   0  0  0  0  0  0  0  0  0  0  0  0
   -1.0662   -0.6284    0.2454 C   0  0  0  0  0  0  0  0  0  0  0  0
   -1.1153   -0.6205    1.3460 H   0  0  0  0  0  0  0  0  0  0  0  0
   -0.7888    0.8060   -0.2342 C   0  0  0  0  0  0  0  0  0  0  0  0
   -0.8353    0.8282   -1.3360 H   0  0  0  0  0  0  0  0  0  0  0  0
    0.6202    1.2312    0.2006 C   0  0  0  0  0  0  0  0  0  0  0  0
    0.6305    1.3108    1.2998 H   0  0  0  0  0  0  0  0  0  0  0  0
    1.6640    0.1933   -0.2245 C   0  0  0  0  0  0  0  0  0  0  0  0
    1.7055    0.1719   -1.3252 H   0  0  0  0  0  0  0  0  0  0  0  0
    1.2406   -1.1974    0.2847 C   0  0  0  0  0  0  0  0  0  0  0  0
    1.2546   -1.1875    1.3863 H   0  0  0  0  0  0  0  0  0  0  0  0
   -0.0532   -1.5103   -0.1937 O   0  0  0  0  0  0  0  0  0  0  0  0
    2.0891   -2.2076   -0.0987 O   0  0  0  0  0  0  0  0  0  0  0  0
    2.9259    0.4889    0.3098 O   0  0  0  0  0  0  0  0  0  0  0  0
    0.9887    2.4619   -0.3736 O   0  0  0  0  0  0  0  0  0  0  0  0
   -1.6849    1.7411    0.3122 O   0  0  0  0  0  0  0  0  0  0  0  0
   -3.4486   -0.3887    0.1469 O   0  0  0  0  0  0  0  0  0  0  0  0
   -2.4742   -2.2192    0.0076 H   0  0  0  0  0  0  0  0  0  0  0  0
   -2.3201   -1.1571   -1.4151 H   0  0  0  0  0  0  0  0  0  0  0  0
    2.0770   -2.3021   -1.0647 H   0  0  0  0  0  0  0  0  0  0  0  0
    3.1429    1.4063    0.0802 H   0  0  0  0  0  0  0  0  0  0  0  0
    0.2931    3.1078   -0.1810 H   0  0  0  0  0  0  0  0  0  0  0  0
   -2.5813    1.3625    0.2906 H   0  0  0  0  0  0  0  0  0  0  0  0
   -4.2865   -0.7700   -0.1520 H   0  0  0  0  0  0  0  0  0  0  0  0
  1  2  1  0  0  0  0
  2  3  1  0  0  0  0
  2  4  1  0  0  0  0
  4  5  1  0  0  0  0
  4  6  1  0  0  0  0
  6  7  1  0  0  0  0
  6  8  1  0  0  0  0
  8  9  1  0  0  0  0
  8 10  1  0  0  0  0
 10 11  1  0  0  0  0
  2 12  1  0  0  0  0
 10 12  1  0  0  0  0
 10 13  1  0  0  0  0
  8 14  1  0  0  0  0
  6 15  1  0  0  0  0
  4 16  1  0  0  0  0
  1 17  1  0  0  0  0
  1 18  1  0  0  0  0
  1 19  1  0  0  0  0
 13 20  1  0  0  0  0
 14 21  1  0  0  0  0
 15 22  1  0  0  0  0
 16 23  1  0  0  0  0
 17 24  1  0  0  0  0
M  END
