19
 xtb: 6.7.1 (edcfbbe)
C           -2.42077672336905       -0.31152321385758       -1.23802683694266
C           -1.72247416815820        0.04156404566984        0.04664652649878
C           -2.41965310989397        0.32149794918879        1.15790196675254
C           -0.23994716908311        0.05000754533152        0.03716854525498
C            0.47900167842239       -0.76835105543020       -0.84770645753384
C            1.87101581223995       -0.77388251405594       -0.84720410071110
C            2.57761414061111        0.05007132088385        0.02443036025540
C            1.87731138742562        0.88345758564528        0.89586314074036
C            0.48783785407329        0.88557600539680        0.90018753352594
H           -2.25817059346535       -1.36303076007140       -1.50266881539567
H           -3.49766995883053       -0.15152665642699       -1.14786760037353
H           -2.04061286560623        0.28901181143688       -2.07244818938694
H           -1.93424769261589        0.53303618888192        2.10579405205501
H           -3.50564448325124        0.32735270262576        1.14447737705101
H           -0.05004918584280       -1.42095820797527       -1.53394112340129
H            2.40442775026205       -1.42440972123179       -1.53376225122935
H            3.66294623848252        0.05177511901410        0.01856669748971
H            2.41687049441124        1.54530155604983        1.56650372116302
H           -0.04224454694007        1.56057764193876        1.56463866074540
