 xtb: 6.7.1 (edcfbbe)
          04042521073D

 15 14  0     0  0            999 V2000
   -2.2192    0.2554    0.3727 C   0  0  0  0  0  0  0  0  0  0  0  0
   -0.9799    0.2554   -0.5219 C   0  0  0  0  0  0  0  0  0  0  0  0
    0.0017   -0.7868   -0.0826 C   0  0  0  0  0  0  0  0  0  0  0  0
    1.2888   -0.5964    0.1650 C   0  0  0  0  0  0  0  0  0  0  0  0
    2.0182    0.7077    0.0413 C   0  0  0  0  0  0  0  0  0  0  0  0
   -2.7053   -0.7175    0.3517 H   0  0  0  0  0  0  0  0  0  0  0  0
   -2.9312    1.0049    0.0357 H   0  0  0  0  0  0  0  0  0  0  0  0
   -1.9424    0.4777    1.4009 H   0  0  0  0  0  0  0  0  0  0  0  0
   -1.2863    0.0405   -1.5504 H   0  0  0  0  0  0  0  0  0  0  0  0
   -0.5195    1.2426   -0.5059 H   0  0  0  0  0  0  0  0  0  0  0  0
   -0.4188   -1.7771    0.0402 H   0  0  0  0  0  0  0  0  0  0  0  0
    1.8861   -1.4377    0.4908 H   0  0  0  0  0  0  0  0  0  0  0  0
    3.0899    0.5534    0.1273 H   0  0  0  0  0  0  0  0  0  0  0  0
    1.7086    1.3943    0.8291 H   0  0  0  0  0  0  0  0  0  0  0  0
    1.8127    1.1812   -0.9166 H   0  0  0  0  0  0  0  0  0  0  0  0
  1  2  1  0  0  0  0
  2  3  1  0  0  0  0
  3  4  2  0  0  0  0
  4  5  1  0  0  0  0
  1  6  1  0  0  0  0
  1  7  1  0  0  0  0
  1  8  1  0  0  0  0
  2  9  1  0  0  0  0
  2 10  1  0  0  0  0
  3 11  1  0  0  0  0
  4 12  1  0  0  0  0
  5 13  1  0  0  0  0
  5 14  1  0  0  0  0
  5 15  1  0  0  0  0
M  END
