 xtb: 6.7.1 (edcfbbe)
          04062505213D

 29 29  0     0  0            999 V2000
   -3.6947   -0.1507    0.2991 C   0  0  0  0  0  0  0  0  0  0  0  0
   -2.2606   -0.1118   -0.2193 C   0  0  0  0  0  0  0  0  0  0  0  0
   -2.2793    0.0662   -1.3007 H   0  0  0  0  0  0  0  0  0  0  0  0
   -1.5314   -1.4254    0.0520 C   0  0  0  0  0  0  0  0  0  0  0  0
   -0.0862   -1.3758   -0.4332 C   0  0  0  0  0  0  0  0  0  0  0  0
    0.6908   -0.2332    0.2494 C   0  0  0  0  0  0  0  0  0  0  0  0
    0.6388   -0.3894    1.3316 H   0  0  0  0  0  0  0  0  0  0  0  0
   -0.0733    1.0279   -0.0868 C   0  0  0  0  0  0  0  0  0  0  0  0
    0.3641    1.9178   -0.7905 O   0  0  0  0  0  0  0  0  0  0  0  0
   -1.4814    1.0398    0.4400 C   0  0  0  0  0  0  0  0  0  0  0  0
    2.1672   -0.1373   -0.1699 C   0  0  0  0  0  0  0  0  0  0  0  0
    2.8815    0.8885    0.7120 C   0  0  0  0  0  0  0  0  0  0  0  0
    2.8905   -1.4795   -0.0765 C   0  0  0  0  0  0  0  0  0  0  0  0
   -3.7057   -0.3263    1.3721 H   0  0  0  0  0  0  0  0  0  0  0  0
   -4.1997    0.7906    0.0982 H   0  0  0  0  0  0  0  0  0  0  0  0
   -4.2490   -0.9490   -0.1875 H   0  0  0  0  0  0  0  0  0  0  0  0
   -1.5481   -1.6312    1.1243 H   0  0  0  0  0  0  0  0  0  0  0  0
   -2.0519   -2.2404   -0.4537 H   0  0  0  0  0  0  0  0  0  0  0  0
    0.3985   -2.3248   -0.2093 H   0  0  0  0  0  0  0  0  0  0  0  0
   -0.0598   -1.2252   -1.5152 H   0  0  0  0  0  0  0  0  0  0  0  0
   -1.4732    0.8937    1.5205 H   0  0  0  0  0  0  0  0  0  0  0  0
   -1.9482    1.9984    0.2089 H   0  0  0  0  0  0  0  0  0  0  0  0
    2.2011    0.2170   -1.2063 H   0  0  0  0  0  0  0  0  0  0  0  0
    3.9153    1.0035    0.3961 H   0  0  0  0  0  0  0  0  0  0  0  0
    2.8726    0.5672    1.7516 H   0  0  0  0  0  0  0  0  0  0  0  0
    2.3968    1.8592    0.6414 H   0  0  0  0  0  0  0  0  0  0  0  0
    3.9548   -1.3314   -0.2418 H   0  0  0  0  0  0  0  0  0  0  0  0
    2.5313   -2.1793   -0.8252 H   0  0  0  0  0  0  0  0  0  0  0  0
    2.7564   -1.9156    0.9108 H   0  0  0  0  0  0  0  0  0  0  0  0
  1  2  1  0  0  0  0
  2  3  1  0  0  0  0
  2  4  1  0  0  0  0
  4  5  1  0  0  0  0
  5  6  1  0  0  0  0
  6  7  1  0  0  0  0
  6  8  1  0  0  0  0
  8  9  2  0  0  0  0
  2 10  1  0  0  0  0
  8 10  1  0  0  0  0
  6 11  1  0  0  0  0
 11 12  1  0  0  0  0
 11 13  1  0  0  0  0
  1 14  1  0  0  0  0
  1 15  1  0  0  0  0
  1 16  1  0  0  0  0
  4 17  1  0  0  0  0
  4 18  1  0  0  0  0
  5 19  1  0  0  0  0
  5 20  1  0  0  0  0
 10 21  1  0  0  0  0
 10 22  1  0  0  0  0
 11 23  1  0  0  0  0
 12 24  1  0  0  0  0
 12 25  1  0  0  0  0
 12 26  1  0  0  0  0
 13 27  1  0  0  0  0
 13 28  1  0  0  0  0
 13 29  1  0  0  0  0
M  END
