 xtb: 6.7.1 (edcfbbe)
          04062518003D

 24 24  0     0  0            999 V2000
   -2.2285   -0.9963   -0.4155 C   0  0  0  0  0  0  0  0  0  0  0  0
   -1.1630   -0.2199    0.3729 C   0  0  0  0  0  0  0  0  0  0  0  0
   -1.6433    0.1949    1.2677 H   0  0  0  0  0  0  0  0  0  0  0  0
   -0.5862    0.9491   -0.4323 C   0  0  0  0  0  0  0  0  0  0  0  0
   -0.4473    0.6670   -1.4889 H   0  0  0  0  0  0  0  0  0  0  0  0
    0.7799    1.3298    0.1548 C   0  0  0  0  0  0  0  0  0  0  0  0
    0.6372    1.5565    1.2231 H   0  0  0  0  0  0  0  0  0  0  0  0
    1.7698    0.1560    0.0163 C   0  0  0  0  0  0  0  0  0  0  0  0
    2.2496    0.2144   -0.9673 H   0  0  0  0  0  0  0  0  0  0  0  0
    1.0350   -1.2035    0.1215 C   0  0  0  0  0  0  0  0  0  0  0  0
    1.6486   -1.9005    0.7054 H   0  0  0  0  0  0  0  0  0  0  0  0
   -0.1526   -1.0980    0.8702 O   0  0  0  0  0  0  0  0  0  0  0  0
    0.8561   -1.8241   -1.1124 O   0  0  0  0  0  0  0  0  0  0  0  0
    2.8231    0.2619    0.9400 O   0  0  0  0  0  0  0  0  0  0  0  0
    1.2260    2.4749   -0.5306 O   0  0  0  0  0  0  0  0  0  0  0  0
   -1.4965    2.0120   -0.3529 O   0  0  0  0  0  0  0  0  0  0  0  0
   -2.9288   -1.8971    0.4041 O   0  0  0  0  0  0  0  0  0  0  0  0
   -1.7605   -1.5318   -1.2516 H   0  0  0  0  0  0  0  0  0  0  0  0
   -2.9639   -0.2876   -0.8006 H   0  0  0  0  0  0  0  0  0  0  0  0
    0.5383   -1.2034   -1.7839 H   0  0  0  0  0  0  0  0  0  0  0  0
    2.4888    0.1498    1.8420 H   0  0  0  0  0  0  0  0  0  0  0  0
    2.0888    2.7436   -0.1847 H   0  0  0  0  0  0  0  0  0  0  0  0
   -1.0630    2.8086   -0.6993 H   0  0  0  0  0  0  0  0  0  0  0  0
   -2.2847   -2.4720    0.8437 H   0  0  0  0  0  0  0  0  0  0  0  0
  1  2  1  0  0  0  0
  2  3  1  0  0  0  0
  2  4  1  0  0  0  0
  4  5  1  0  0  0  0
  4  6  1  0  0  0  0
  6  7  1  0  0  0  0
  6  8  1  0  0  0  0
  8  9  1  0  0  0  0
  8 10  1  0  0  0  0
 10 11  1  0  0  0  0
  2 12  1  0  0  0  0
 10 12  1  0  0  0  0
 10 13  1  0  0  0  0
  8 14  1  0  0  0  0
  6 15  1  0  0  0  0
  4 16  1  0  0  0  0
  1 17  1  0  0  0  0
  1 18  1  0  0  0  0
  1 19  1  0  0  0  0
 13 20  1  0  0  0  0
 14 21  1  0  0  0  0
 15 22  1  0  0  0  0
 16 23  1  0  0  0  0
 17 24  1  0  0  0  0
M  END
