23
 xtb: 6.7.1 (edcfbbe)
C           -2.59918918338713       -0.72778024389679        0.64917483416248
C           -1.52047469139686        0.01226529410835       -0.09154444947137
O           -1.63171915402925        0.22888508635780       -1.29510693835916
C           -0.35420705998675        0.53895239937530        0.72409184560076
C            0.54333011916601        1.51434052380585       -0.04892741595116
C            1.47078186041263        0.82865396583253       -1.05929204529971
C            2.27614359154074       -0.29844017806059       -0.41175865951878
C            1.34861648098091       -1.30069631718825        0.27590578631303
C            0.49266980613471       -0.60475021773474        1.33286160071255
H           -2.19450309735712       -1.46180476423592        1.34996730058133
H           -3.15801896926764        0.00379358128102        1.24656893945305
H           -3.28236724304087       -1.21054027173151       -0.05121723146300
H           -0.82646188189910        1.06927836836847        1.56424192975335
H           -0.07348152376422        2.26763289128394       -0.55137364870409
H            1.15945355001334        2.04566536090618        0.68790505493865
H            0.88153235788664        0.41478603177181       -1.88549564298564
H            2.14518646461508        1.57593953908410       -1.49374297589569
H            2.89389398209823       -0.80156460239952       -1.16469274728487
H            2.96186365615129        0.12306929451669        0.33713376731461
H            0.69884886416809       -1.77397211801569       -0.47459181632712
H            1.93071983730453       -2.10206834878508        0.74520636646394
H           -0.14445918323695       -1.32404662287818        1.85524753927159
H            1.15038106023059       -0.15688783212707        2.08852795856560
