 xtb: 6.7.1 (edcfbbe)
          04032521163D

 19 19  0     0  0            999 V2000
   -3.0830    0.4063    0.0004 C   0  0  0  0  0  0  0  0  0  0  0  0
   -1.6252    0.0549   -0.0002 C   0  0  0  0  0  0  0  0  0  0  0  0
   -1.1975   -1.2626   -0.0002 C   0  0  0  0  0  0  0  0  0  0  0  0
    0.1534   -1.5680   -0.0002 C   0  0  0  0  0  0  0  0  0  0  0  0
    1.1000   -0.5557   -0.0001 C   0  0  0  0  0  0  0  0  0  0  0  0
    0.6913    0.7837    0.0000 C   0  0  0  0  0  0  0  0  0  0  0  0
   -0.6634    1.0605   -0.0000 C   0  0  0  0  0  0  0  0  0  0  0  0
    1.7253    1.8669   -0.0000 C   0  0  0  0  0  0  0  0  0  0  0  0
    2.4414   -0.8141   -0.0001 O   0  0  0  0  0  0  0  0  0  0  0  0
   -3.3308    0.9915    0.8846 H   0  0  0  0  0  0  0  0  0  0  0  0
   -3.3284    1.0053   -0.8751 H   0  0  0  0  0  0  0  0  0  0  0  0
   -3.6971   -0.4901   -0.0074 H   0  0  0  0  0  0  0  0  0  0  0  0
   -1.9207   -2.0649   -0.0003 H   0  0  0  0  0  0  0  0  0  0  0  0
    0.4707   -2.6015   -0.0002 H   0  0  0  0  0  0  0  0  0  0  0  0
   -0.9834    2.0929    0.0000 H   0  0  0  0  0  0  0  0  0  0  0  0
    2.3657    1.7703    0.8755 H   0  0  0  0  0  0  0  0  0  0  0  0
    2.3624    1.7733   -0.8783 H   0  0  0  0  0  0  0  0  0  0  0  0
    1.2593    2.8478    0.0024 H   0  0  0  0  0  0  0  0  0  0  0  0
    2.5969   -1.7697   -0.0001 H   0  0  0  0  0  0  0  0  0  0  0  0
  1  2  1  0  0  0  0
  2  3  4  0  0  0  0
  3  4  4  0  0  0  0
  4  5  4  0  0  0  0
  5  6  4  0  0  0  0
  2  7  4  0  0  0  0
  6  7  4  0  0  0  0
  6  8  1  0  0  0  0
  5  9  1  0  0  0  0
  1 10  1  0  0  0  0
  1 11  1  0  0  0  0
  1 12  1  0  0  0  0
  3 13  1  0  0  0  0
  4 14  1  0  0  0  0
  7 15  1  0  0  0  0
  8 16  1  0  0  0  0
  8 17  1  0  0  0  0
  8 18  1  0  0  0  0
  9 19  1  0  0  0  0
M  END
