 xtb: 6.7.1 (edcfbbe)
          04062518003D

 24 24  0     0  0            999 V2000
   -2.0396   -1.4091   -0.1117 C   0  0  0  0  0  0  0  0  0  0  0  0
   -1.0063   -0.5280    0.6045 C   0  0  0  0  0  0  0  0  0  0  0  0
   -1.4448   -0.1734    1.5458 H   0  0  0  0  0  0  0  0  0  0  0  0
   -0.6531    0.6986   -0.2488 C   0  0  0  0  0  0  0  0  0  0  0  0
   -0.5638    0.4082   -1.3071 H   0  0  0  0  0  0  0  0  0  0  0  0
    0.7002    1.2530    0.2126 C   0  0  0  0  0  0  0  0  0  0  0  0
    0.6430    1.4300    1.3006 H   0  0  0  0  0  0  0  0  0  0  0  0
    1.7920    0.2154   -0.0755 C   0  0  0  0  0  0  0  0  0  0  0  0
    2.1080    0.3311   -1.1172 H   0  0  0  0  0  0  0  0  0  0  0  0
    1.2342   -1.2213    0.0929 C   0  0  0  0  0  0  0  0  0  0  0  0
    2.0068   -1.8243    0.5891 H   0  0  0  0  0  0  0  0  0  0  0  0
    0.1412   -1.2809    0.9810 O   0  0  0  0  0  0  0  0  0  0  0  0
    0.9179   -1.7296   -1.1642 O   0  0  0  0  0  0  0  0  0  0  0  0
    2.9470    0.4057    0.6938 O   0  0  0  0  0  0  0  0  0  0  0  0
    1.0205    2.4488   -0.4472 O   0  0  0  0  0  0  0  0  0  0  0  0
   -1.6075    1.7207   -0.1012 O   0  0  0  0  0  0  0  0  0  0  0  0
   -3.2086   -0.6391   -0.2873 O   0  0  0  0  0  0  0  0  0  0  0  0
   -2.2330   -2.2920    0.5088 H   0  0  0  0  0  0  0  0  0  0  0  0
   -1.6311   -1.7246   -1.0792 H   0  0  0  0  0  0  0  0  0  0  0  0
    0.8779   -2.6981   -1.1376 H   0  0  0  0  0  0  0  0  0  0  0  0
    2.7127    0.4898    1.6301 H   0  0  0  0  0  0  0  0  0  0  0  0
    0.2301    3.0123   -0.4391 H   0  0  0  0  0  0  0  0  0  0  0  0
   -2.4855    1.3434   -0.2752 H   0  0  0  0  0  0  0  0  0  0  0  0
   -3.8900   -1.1804   -0.7099 H   0  0  0  0  0  0  0  0  0  0  0  0
  1  2  1  0  0  0  0
  2  3  1  0  0  0  0
  2  4  1  0  0  0  0
  4  5  1  0  0  0  0
  4  6  1  0  0  0  0
  6  7  1  0  0  0  0
  6  8  1  0  0  0  0
  8  9  1  0  0  0  0
  8 10  1  0  0  0  0
 10 11  1  0  0  0  0
  2 12  1  0  0  0  0
 10 12  1  0  0  0  0
 10 13  1  0  0  0  0
  8 14  1  0  0  0  0
  6 15  1  0  0  0  0
  4 16  1  0  0  0  0
  1 17  1  0  0  0  0
  1 18  1  0  0  0  0
  1 19  1  0  0  0  0
 13 20  1  0  0  0  0
 14 21  1  0  0  0  0
 15 22  1  0  0  0  0
 16 23  1  0  0  0  0
 17 24  1  0  0  0  0
M  END
