 xtb: 6.7.1 (edcfbbe)
          04062518003D

 24 24  0     0  0            999 V2000
   -2.0653   -1.3775   -0.1102 C   0  0  0  0  0  0  0  0  0  0  0  0
   -1.0126   -0.5024    0.5945 C   0  0  0  0  0  0  0  0  0  0  0  0
   -1.4482   -0.1472    1.5374 H   0  0  0  0  0  0  0  0  0  0  0  0
   -0.6342    0.7104   -0.2757 C   0  0  0  0  0  0  0  0  0  0  0  0
   -0.5204    0.3881   -1.3191 H   0  0  0  0  0  0  0  0  0  0  0  0
    0.7146    1.2467    0.2223 C   0  0  0  0  0  0  0  0  0  0  0  0
    0.6852    1.3683    1.3122 H   0  0  0  0  0  0  0  0  0  0  0  0
    1.7846    0.1950   -0.1189 C   0  0  0  0  0  0  0  0  0  0  0  0
    2.0367    0.2736   -1.1882 H   0  0  0  0  0  0  0  0  0  0  0  0
    1.2284   -1.2274    0.1053 C   0  0  0  0  0  0  0  0  0  0  0  0
    2.0010   -1.8037    0.6318 H   0  0  0  0  0  0  0  0  0  0  0  0
    0.1318   -1.2595    0.9823 O   0  0  0  0  0  0  0  0  0  0  0  0
    0.9252   -1.7739   -1.1400 O   0  0  0  0  0  0  0  0  0  0  0  0
    2.9387    0.3384    0.6671 O   0  0  0  0  0  0  0  0  0  0  0  0
    1.0330    2.5141   -0.2888 O   0  0  0  0  0  0  0  0  0  0  0  0
   -1.6516    1.6773   -0.2932 O   0  0  0  0  0  0  0  0  0  0  0  0
   -3.3215   -0.7487   -0.1514 O   0  0  0  0  0  0  0  0  0  0  0  0
   -2.2012   -2.3005    0.4579 H   0  0  0  0  0  0  0  0  0  0  0  0
   -1.7190   -1.6262   -1.1223 H   0  0  0  0  0  0  0  0  0  0  0  0
    0.8083   -2.7331   -1.0663 H   0  0  0  0  0  0  0  0  0  0  0  0
    3.2539    1.2531    0.5986 H   0  0  0  0  0  0  0  0  0  0  0  0
    0.9029    2.5278   -1.2484 H   0  0  0  0  0  0  0  0  0  0  0  0
   -1.6482    2.1795    0.5347 H   0  0  0  0  0  0  0  0  0  0  0  0
   -3.2177    0.1329   -0.5452 H   0  0  0  0  0  0  0  0  0  0  0  0
  1  2  1  0  0  0  0
  2  3  1  0  0  0  0
  2  4  1  0  0  0  0
  4  5  1  0  0  0  0
  4  6  1  0  0  0  0
  6  7  1  0  0  0  0
  6  8  1  0  0  0  0
  8  9  1  0  0  0  0
  8 10  1  0  0  0  0
 10 11  1  0  0  0  0
  2 12  1  0  0  0  0
 10 12  1  0  0  0  0
 10 13  1  0  0  0  0
  8 14  1  0  0  0  0
  6 15  1  0  0  0  0
  4 16  1  0  0  0  0
  1 17  1  0  0  0  0
  1 18  1  0  0  0  0
  1 19  1  0  0  0  0
 13 20  1  0  0  0  0
 14 21  1  0  0  0  0
 15 22  1  0  0  0  0
 16 23  1  0  0  0  0
 17 24  1  0  0  0  0
M  END
