 xtb: 6.7.1 (edcfbbe)
          04062518003D

 24 24  0     0  0            999 V2000
   -2.4097   -0.7166   -0.0231 C   0  0  0  0  0  0  0  0  0  0  0  0
   -0.9862   -0.2840    0.3443 C   0  0  0  0  0  0  0  0  0  0  0  0
   -0.9585   -0.0029    1.4091 H   0  0  0  0  0  0  0  0  0  0  0  0
   -0.5163    0.9032   -0.5096 C   0  0  0  0  0  0  0  0  0  0  0  0
   -0.4396    0.5934   -1.5570 H   0  0  0  0  0  0  0  0  0  0  0  0
    0.8830    1.3485   -0.0474 C   0  0  0  0  0  0  0  0  0  0  0  0
    0.7498    2.0473    0.7951 H   0  0  0  0  0  0  0  0  0  0  0  0
    1.7076    0.1465    0.4808 C   0  0  0  0  0  0  0  0  0  0  0  0
    2.7446    0.2557    0.1382 H   0  0  0  0  0  0  0  0  0  0  0  0
    1.2046   -1.1759   -0.1116 C   0  0  0  0  0  0  0  0  0  0  0  0
    1.7449   -2.0039    0.3769 H   0  0  0  0  0  0  0  0  0  0  0  0
   -0.1477   -1.4239    0.1608 O   0  0  0  0  0  0  0  0  0  0  0  0
    1.4651   -1.1526   -1.4797 O   0  0  0  0  0  0  0  0  0  0  0  0
    1.6330    0.0302    1.8799 O   0  0  0  0  0  0  0  0  0  0  0  0
    1.4988    1.9954   -1.1293 O   0  0  0  0  0  0  0  0  0  0  0  0
   -1.4385    1.9580   -0.4958 O   0  0  0  0  0  0  0  0  0  0  0  0
   -2.9407   -1.6330    0.8985 O   0  0  0  0  0  0  0  0  0  0  0  0
   -2.3969   -1.1419   -1.0343 H   0  0  0  0  0  0  0  0  0  0  0  0
   -3.0680    0.1532   -0.0137 H   0  0  0  0  0  0  0  0  0  0  0  0
    1.2044   -1.9970   -1.8784 H   0  0  0  0  0  0  0  0  0  0  0  0
    2.2112    0.6825    2.3021 H   0  0  0  0  0  0  0  0  0  0  0  0
    2.3253    2.4155   -0.8497 H   0  0  0  0  0  0  0  0  0  0  0  0
   -1.4960    2.3333    0.3960 H   0  0  0  0  0  0  0  0  0  0  0  0
   -2.3400   -2.3901    0.9554 H   0  0  0  0  0  0  0  0  0  0  0  0
  1  2  1  0  0  0  0
  2  3  1  0  0  0  0
  2  4  1  0  0  0  0
  4  5  1  0  0  0  0
  4  6  1  0  0  0  0
  6  7  1  0  0  0  0
  6  8  1  0  0  0  0
  8  9  1  0  0  0  0
  8 10  1  0  0  0  0
 10 11  1  0  0  0  0
  2 12  1  0  0  0  0
 10 12  1  0  0  0  0
 10 13  1  0  0  0  0
  8 14  1  0  0  0  0
  6 15  1  0  0  0  0
  4 16  1  0  0  0  0
  1 17  1  0  0  0  0
  1 18  1  0  0  0  0
  1 19  1  0  0  0  0
 13 20  1  0  0  0  0
 14 21  1  0  0  0  0
 15 22  1  0  0  0  0
 16 23  1  0  0  0  0
 17 24  1  0  0  0  0
M  END
