 xtb: 6.7.1 (edcfbbe)
          04052509083D

 22 23  0     0  0            999 V2000
    1.2255    0.4400   -1.5548 C   0  0  0  0  0  0  0  0  0  0  0  0
    2.5978    0.5349   -1.6962 C   0  0  0  0  0  0  0  0  0  0  0  0
    3.4236    0.3008   -0.6077 C   0  0  0  0  0  0  0  0  0  0  0  0
    2.8704   -0.0297    0.6245 C   0  0  0  0  0  0  0  0  0  0  0  0
    1.4962   -0.1259    0.7672 C   0  0  0  0  0  0  0  0  0  0  0  0
    0.6711    0.1095   -0.3243 C   0  0  0  0  0  0  0  0  0  0  0  0
   -0.8002    0.0069   -0.1700 C   0  0  0  0  0  0  0  0  0  0  0  0
   -1.5546    1.1297    0.1617 C   0  0  0  0  0  0  0  0  0  0  0  0
   -2.9373    1.0328    0.2998 C   0  0  0  0  0  0  0  0  0  0  0  0
   -3.5743   -0.1832    0.1075 C   0  0  0  0  0  0  0  0  0  0  0  0
   -2.8292   -1.3049   -0.2210 C   0  0  0  0  0  0  0  0  0  0  0  0
   -1.4462   -1.2125   -0.3592 C   0  0  0  0  0  0  0  0  0  0  0  0
   -0.5115   -2.6027   -0.7656 Cl  0  0  0  0  0  0  0  0  0  0  0  0
   -3.6200   -2.8147   -0.4581 Cl  0  0  0  0  0  0  0  0  0  0  0  0
   -3.8620    2.4245    0.7109 Cl  0  0  0  0  0  0  0  0  0  0  0  0
   -0.7537    2.6370    0.4026 Cl  0  0  0  0  0  0  0  0  0  0  0  0
    3.8941   -0.3232    1.9906 Cl  0  0  0  0  0  0  0  0  0  0  0  0
    5.1420    0.4205   -0.7851 Cl  0  0  0  0  0  0  0  0  0  0  0  0
    0.5827    0.6218   -2.4005 H   0  0  0  0  0  0  0  0  0  0  0  0
    3.0363    0.7899   -2.6466 H   0  0  0  0  0  0  0  0  0  0  0  0
    1.0754   -0.3824    1.7256 H   0  0  0  0  0  0  0  0  0  0  0  0
   -4.6439   -0.2562    0.2133 H   0  0  0  0  0  0  0  0  0  0  0  0
  1  2  4  0  0  0  0
  2  3  4  0  0  0  0
  3  4  4  0  0  0  0
  4  5  4  0  0  0  0
  1  6  4  0  0  0  0
  5  6  4  0  0  0  0
  6  7  1  0  0  0  0
  7  8  4  0  0  0  0
  8  9  4  0  0  0  0
  9 10  4  0  0  0  0
 10 11  4  0  0  0  0
  7 12  4  0  0  0  0
 11 12  4  0  0  0  0
 12 13  1  0  0  0  0
 11 14  1  0  0  0  0
  9 15  1  0  0  0  0
  8 16  1  0  0  0  0
  4 17  1  0  0  0  0
  3 18  1  0  0  0  0
  1 19  1  0  0  0  0
  2 20  1  0  0  0  0
  5 21  1  0  0  0  0
 10 22  1  0  0  0  0
M  END
