 xtb: 6.7.1 (edcfbbe)
          04052503223D

 18 18  0     0  0            999 V2000
   -2.8523   -0.6600    0.3486 C   0  0  0  0  0  0  0  0  0  0  0  0
   -1.9756    0.4116   -0.2908 C   0  0  0  0  0  0  0  0  0  0  0  0
   -0.4917    0.2019   -0.1336 C   0  0  0  0  0  0  0  0  0  0  0  0
    0.0720   -1.0445    0.1047 C   0  0  0  0  0  0  0  0  0  0  0  0
    1.4443   -1.1906    0.2238 C   0  0  0  0  0  0  0  0  0  0  0  0
    2.2782   -0.0936    0.1028 C   0  0  0  0  0  0  0  0  0  0  0  0
    1.7289    1.1548   -0.1386 C   0  0  0  0  0  0  0  0  0  0  0  0
    0.3587    1.2975   -0.2535 C   0  0  0  0  0  0  0  0  0  0  0  0
   -3.8959   -0.3590    0.2964 H   0  0  0  0  0  0  0  0  0  0  0  0
   -2.5856   -0.7987    1.3938 H   0  0  0  0  0  0  0  0  0  0  0  0
   -2.7519   -1.6112   -0.1677 H   0  0  0  0  0  0  0  0  0  0  0  0
   -2.2303    1.3838    0.1385 H   0  0  0  0  0  0  0  0  0  0  0  0
   -2.2016    0.4657   -1.3606 H   0  0  0  0  0  0  0  0  0  0  0  0
   -0.5564   -1.9157    0.2010 H   0  0  0  0  0  0  0  0  0  0  0  0
    1.8629   -2.1686    0.4119 H   0  0  0  0  0  0  0  0  0  0  0  0
    3.3478   -0.2089    0.1962 H   0  0  0  0  0  0  0  0  0  0  0  0
    2.3699    2.0189   -0.2346 H   0  0  0  0  0  0  0  0  0  0  0  0
   -0.0627    2.2755   -0.4396 H   0  0  0  0  0  0  0  0  0  0  0  0
  1  2  1  0  0  0  0
  2  3  1  0  0  0  0
  3  4  4  0  0  0  0
  4  5  4  0  0  0  0
  5  6  4  0  0  0  0
  6  7  4  0  0  0  0
  3  8  4  0  0  0  0
  7  8  4  0  0  0  0
  1  9  1  0  0  0  0
  1 10  1  0  0  0  0
  1 11  1  0  0  0  0
  2 12  1  0  0  0  0
  2 13  1  0  0  0  0
  4 14  1  0  0  0  0
  5 15  1  0  0  0  0
  6 16  1  0  0  0  0
  7 17  1  0  0  0  0
  8 18  1  0  0  0  0
M  END
