 xtb: 6.7.1 (edcfbbe)
          04052516073D

 27 27  0     0  0            999 V2000
   -2.8897    0.5743   -0.8900 C   0  0  0  0  0  0  0  0  0  0  0  0
   -1.9954    0.4755    0.3502 C   0  0  0  0  0  0  0  0  0  0  0  0
   -2.6485    0.5459    1.2291 H   0  0  0  0  0  0  0  0  0  0  0  0
   -0.9436    1.5830    0.4174 C   0  0  0  0  0  0  0  0  0  0  0  0
    0.1965    1.3419   -0.5700 C   0  0  0  0  0  0  0  0  0  0  0  0
    0.8386   -0.0540   -0.4175 C   0  0  0  0  0  0  0  0  0  0  0  0
    0.7269   -0.5953   -1.3617 H   0  0  0  0  0  0  0  0  0  0  0  0
    0.1218   -0.8894    0.6635 C   0  0  0  0  0  0  0  0  0  0  0  0
   -1.3578   -0.8943    0.4198 C   0  0  0  0  0  0  0  0  0  0  0  0
   -1.9985   -1.9199    0.2822 O   0  0  0  0  0  0  0  0  0  0  0  0
    2.3162    0.0064   -0.0863 C   0  0  0  0  0  0  0  0  0  0  0  0
    2.7845    0.7273    0.9202 C   0  0  0  0  0  0  0  0  0  0  0  0
    3.2042   -0.8234   -0.9601 C   0  0  0  0  0  0  0  0  0  0  0  0
   -2.2925    0.5388   -1.7974 H   0  0  0  0  0  0  0  0  0  0  0  0
   -3.5846   -0.2620   -0.9075 H   0  0  0  0  0  0  0  0  0  0  0  0
   -3.4531    1.5029   -0.8757 H   0  0  0  0  0  0  0  0  0  0  0  0
   -1.4169    2.5400    0.1938 H   0  0  0  0  0  0  0  0  0  0  0  0
   -0.5443    1.6445    1.4306 H   0  0  0  0  0  0  0  0  0  0  0  0
   -0.1863    1.4508   -1.5851 H   0  0  0  0  0  0  0  0  0  0  0  0
    0.9559    2.1114   -0.4290 H   0  0  0  0  0  0  0  0  0  0  0  0
    0.4974   -1.9137    0.6610 H   0  0  0  0  0  0  0  0  0  0  0  0
    0.3126   -0.4520    1.6441 H   0  0  0  0  0  0  0  0  0  0  0  0
    3.8346    0.7572    1.1539 H   0  0  0  0  0  0  0  0  0  0  0  0
    2.1445    1.3211    1.5500 H   0  0  0  0  0  0  0  0  0  0  0  0
    4.2386   -0.7691   -0.6331 H   0  0  0  0  0  0  0  0  0  0  0  0
    2.8826   -1.8639   -0.9403 H   0  0  0  0  0  0  0  0  0  0  0  0
    3.1427   -0.4770   -1.9911 H   0  0  0  0  0  0  0  0  0  0  0  0
  1  2  1  0  0  0  0
  2  3  1  0  0  0  0
  2  4  1  0  0  0  0
  4  5  1  0  0  0  0
  5  6  1  0  0  0  0
  6  7  1  0  0  0  0
  6  8  1  0  0  0  0
  2  9  1  0  0  0  0
  8  9  1  0  0  0  0
  9 10  2  0  0  0  0
  6 11  1  0  0  0  0
 11 12  2  0  0  0  0
 11 13  1  0  0  0  0
  1 14  1  0  0  0  0
  1 15  1  0  0  0  0
  1 16  1  0  0  0  0
  4 17  1  0  0  0  0
  4 18  1  0  0  0  0
  5 19  1  0  0  0  0
  5 20  1  0  0  0  0
  8 21  1  0  0  0  0
  8 22  1  0  0  0  0
 12 23  1  0  0  0  0
 12 24  1  0  0  0  0
 13 25  1  0  0  0  0
 13 26  1  0  0  0  0
 13 27  1  0  0  0  0
M  END
