17
CONF1
C 1.8420196151 -1.4297472592 0.0001839696
C 0.5275876510 -0.7092845994 0.0000477596
C -0.6780123170 -1.4043987242 0.0000492343
C -1.8816998155 -0.7068789426 -0.0000072739
C -1.8338940627 0.6775572502 -0.0000487858
N -0.6879454250 1.3761271353 -0.0001140622
C 0.4724591426 0.6992925133 -0.0000843788
C 1.7371421714 1.5014785159 -0.0000958537
H 2.4403599279 -1.1661437018 -0.8794517663
H 2.4407244427 -1.1651191056 0.8792610195
H 1.6909667339 -2.5118250871 0.0008270182
H -0.6714982910 -2.4910106257 0.0000968341
H -2.8339492236 -1.2264779186 -0.0000247951
H -2.7524000712 1.2607526963 -0.0000556696
H 1.5162414385 2.5696624021 -0.0013187228
H 2.3490186600 1.2685624590 0.8791988222
H 2.3502232004 1.2667232120 -0.8780431912
17
CONF3
C 1.8356096627 -1.4667691195 -0.0004580850
C 0.5354471791 -0.7144333468 0.0002238676
C -0.6773515741 -1.4034110277 0.0000531415
C -1.8785255909 -0.7059145469 0.0000788890
C -1.8260841489 0.6798331732 0.0002235213
N -0.6789615355 1.3699663287 0.0006768035
C 0.4836077022 0.6924685854 0.0007625298
C 1.7240530436 1.5363860614 0.0001300739
H 1.6519639198 -2.5438957502 -0.0031559668
H 2.4402443562 -1.2227539195 -0.8804828115
H 2.4386663465 -1.2270596553 0.8818596712
H -0.6744169145 -2.4899647952 -0.0002129832
H -2.8317858127 -1.2235912501 -0.0000477502
H -2.7425437644 1.2665359192 0.0002018885
H 1.7302201372 2.1980204351 0.8728224340
H 2.6376975072 0.9426127851 0.0132839211
H 1.7431552753 2.1774406744 -0.8878425353
17
CONF2
C 1.8294169166 -1.4673292676 -0.0008743834
C 0.5352204700 -0.7033480236 0.0016380140
C -0.6727965795 -1.3995352542 0.0018314798
C -1.8772399955 -0.7089477379 0.0005822383
C -1.8317920377 0.6770695468 -0.0000646385
N -0.6883778458 1.3750350127 0.0000062307
C 0.4789052235 0.7029863200 0.0005206711
C 1.7290295511 1.5339519376 -0.0005504046
H 2.7031494424 -0.8171780816 0.0387018231
H 1.8732278775 -2.1476072230 0.8563437019
H 1.9076562135 -2.0838158295 -0.9031811361
H -0.6623159624 -2.4864972675 0.0029486319
H -2.8279184570 -1.2313392583 0.0005799379
H -2.7512394732 1.2590567015 -0.0008751238
H 1.4743353529 2.5945961095 -0.0007301523
H 2.3465501911 1.3242526429 0.8796475552
H 2.3451147413 1.3232593778 -0.8815845111
