 xtb: 6.7.1 (edcfbbe)
          04032521163D

  7  6  0     0  0            999 V2000
    0.7367   -0.0000    0.0122 C   0  0  0  0  0  0  0  0  0  0  0  0
   -0.7173   -0.0000   -0.0714 N   0  0  0  0  0  0  0  0  0  0  0  0
    1.1151    0.8833   -0.5002 H   0  0  0  0  0  0  0  0  0  0  0  0
    1.1151   -0.8834   -0.5001 H   0  0  0  0  0  0  0  0  0  0  0  0
    1.1291    0.0001    1.0389 H   0  0  0  0  0  0  0  0  0  0  0  0
   -1.0850   -0.8170    0.4040 H   0  0  0  0  0  0  0  0  0  0  0  0
   -1.0850    0.8171    0.4040 H   0  0  0  0  0  0  0  0  0  0  0  0
  1  2  1  0  0  0  0
  1  3  1  0  0  0  0
  1  4  1  0  0  0  0
  1  5  1  0  0  0  0
  2  6  1  0  0  0  0
  2  7  1  0  0  0  0
M  END
