 xtb: 6.7.1 (edcfbbe)
          04032522133D

 25 27  0     0  0            999 V2000
    1.5795    1.6329    0.8422 C   0  0  0  0  0  0  0  0  0  0  0  0
    0.2797    0.8821    1.1972 C   0  0  0  0  0  0  0  0  0  0  0  0
   -0.0784    1.2673    2.1537 H   0  0  0  0  0  0  0  0  0  0  0  0
    0.3133   -0.6754    1.2793 C   0  0  0  0  0  0  0  0  0  0  0  0
   -0.0690   -0.9908    2.2526 H   0  0  0  0  0  0  0  0  0  0  0  0
    1.6502   -1.4012    1.0912 C   0  0  0  0  0  0  0  0  0  0  0  0
    2.4355   -0.8739    0.0506 O   0  0  0  0  0  0  0  0  0  0  0  0
    3.6560    0.1464    0.5729 S   0  0  0  0  0  0  0  0  0  0  0  0
    4.4506   -0.5688    1.5396 O   0  0  0  0  0  0  0  0  0  0  0  0
    2.6967    1.1102    1.5244 O   0  0  0  0  0  0  0  0  0  0  0  0
   -0.7365   -1.0894    0.2109 C   0  0  0  0  0  0  0  0  0  0  0  0
   -0.2041   -0.6900   -1.1499 C   0  0  0  0  0  0  0  0  0  0  0  0
   -0.2618    0.6476   -1.2142 C   0  0  0  0  0  0  0  0  0  0  0  0
   -0.8088    1.1365    0.1151 C   0  0  0  0  0  0  0  0  0  0  0  0
   -1.8139    0.0011    0.4062 C   0  0  0  0  0  0  0  0  0  0  0  0
   -3.1278   -0.0913   -0.7820 Cl  0  0  0  0  0  0  0  0  0  0  0  0
   -2.5312    0.0476    2.0102 Cl  0  0  0  0  0  0  0  0  0  0  0  0
   -1.4614    2.7626    0.1037 Cl  0  0  0  0  0  0  0  0  0  0  0  0
    0.2081    1.6730   -2.4764 Cl  0  0  0  0  0  0  0  0  0  0  0  0
    0.3769   -1.7913   -2.2885 Cl  0  0  0  0  0  0  0  0  0  0  0  0
   -1.2908   -2.7485    0.3397 Cl  0  0  0  0  0  0  0  0  0  0  0  0
    1.4700    2.6785    1.1382 H   0  0  0  0  0  0  0  0  0  0  0  0
    1.7650    1.5849   -0.2334 H   0  0  0  0  0  0  0  0  0  0  0  0
    2.2244   -1.3556    2.0236 H   0  0  0  0  0  0  0  0  0  0  0  0
    1.4498   -2.4519    0.8625 H   0  0  0  0  0  0  0  0  0  0  0  0
  1  2  1  0  0  0  0
  2  3  1  0  0  0  0
  2  4  1  0  0  0  0
  4  5  1  0  0  0  0
  4  6  1  0  0  0  0
  6  7  1  0  0  0  0
  7  8  1  0  0  0  0
  8  9  2  0  0  0  0
  1 10  1  0  0  0  0
  8 10  1  0  0  0  0
  4 11  1  0  0  0  0
 11 12  1  0  0  0  0
 12 13  2  0  0  0  0
  2 14  1  0  0  0  0
 13 14  1  0  0  0  0
 11 15  1  0  0  0  0
 14 15  1  0  0  0  0
 15 16  1  0  0  0  0
 15 17  1  0  0  0  0
 14 18  1  0  0  0  0
 13 19  1  0  0  0  0
 12 20  1  0  0  0  0
 11 21  1  0  0  0  0
  1 22  1  0  0  0  0
  1 23  1  0  0  0  0
  6 24  1  0  0  0  0
  6 25  1  0  0  0  0
M  END
