17
CONF1
C -2.7691918321 -0.7774138026 -0.0001652761
O -1.7937705075 0.2446592839 0.0001285529
C -0.4657681319 -0.1191472068 0.0000705467
C 0.0140541899 -1.4168890576 0.0000830934
C 1.3821534592 -1.6509731817 0.0000243933
C 2.2716902286 -0.5951862780 -0.0000571448
C 1.8005170989 0.7080016666 -0.0000668202
C 0.4388694284 0.9565882650 0.0000032429
O -0.0110386855 2.2419712985 0.0000011477
H -2.6866492339 -1.3998900179 -0.8947192534
H -3.7259228686 -0.2600851922 -0.0001874284
H -2.6868752419 -1.4002120281 0.8941837623
H -0.6663429452 -2.2528267317 0.0001412246
H 1.7430020138 -2.6673988995 0.0000377503
H 3.3345382273 -0.7773942715 -0.0001190885
H 2.4740255123 1.5499106149 -0.0001361734
H -0.9819503410 2.2346680479 0.0000269424
17
CONF2
C -2.7702489780 -0.7793756095 0.0000256841
O -1.7987642373 0.2466154380 -0.0000120392
C -0.4782820971 -0.1106194653 -0.0000091972
C -0.0002490391 -1.4108283953 -0.0000114415
C 1.3654346462 -1.6594560737 -0.0000032660
C 2.2630603757 -0.6126192091 0.0000066290
C 1.7972400205 0.6939300156 0.0000065116
C 0.4392241073 0.9578425399 -0.0000020050
O -0.0648737576 2.2238294252 -0.0000035785
H -3.7279129719 -0.2637987549 0.0000533971
H -2.6876830780 -1.4023961409 0.8948893357
H -2.6877417614 -1.4024064355 -0.8948364053
H -0.6862562224 -2.2418678870 -0.0000188941
H 1.7158346471 -2.6795511246 -0.0000052580
H 3.3248625659 -0.8010927075 0.0000119436
H 2.4968657488 1.5167519392 0.0000101128
H 0.6587810878 2.8691733068 -0.0000102229
