 xtb: 6.7.1 (edcfbbe)
          04062518003D

 24 24  0     0  0            999 V2000
   -2.0726   -1.1771   -0.2700 C   0  0  0  0  0  0  0  0  0  0  0  0
   -1.2705   -0.3483    0.7534 C   0  0  0  0  0  0  0  0  0  0  0  0
   -1.9043   -0.2327    1.6385 H   0  0  0  0  0  0  0  0  0  0  0  0
   -0.9313    1.0618    0.2080 C   0  0  0  0  0  0  0  0  0  0  0  0
   -1.2538    1.1366   -0.8365 H   0  0  0  0  0  0  0  0  0  0  0  0
    0.5848    1.2879    0.2463 C   0  0  0  0  0  0  0  0  0  0  0  0
    0.9231    1.3500    1.2951 H   0  0  0  0  0  0  0  0  0  0  0  0
    1.2731    0.0850   -0.4112 C   0  0  0  0  0  0  0  0  0  0  0  0
    0.8532   -0.0478   -1.4167 H   0  0  0  0  0  0  0  0  0  0  0  0
    0.9874   -1.1723    0.4307 C   0  0  0  0  0  0  0  0  0  0  0  0
    1.8251   -1.3221    1.1277 H   0  0  0  0  0  0  0  0  0  0  0  0
   -0.1294   -1.0336    1.2687 O   0  0  0  0  0  0  0  0  0  0  0  0
    0.8656   -2.2643   -0.4362 O   0  0  0  0  0  0  0  0  0  0  0  0
    2.6501    0.3613   -0.4749 O   0  0  0  0  0  0  0  0  0  0  0  0
    0.8873    2.4786   -0.4285 O   0  0  0  0  0  0  0  0  0  0  0  0
   -1.6471    2.0609    0.8830 O   0  0  0  0  0  0  0  0  0  0  0  0
   -1.4908   -1.2535   -1.5468 O   0  0  0  0  0  0  0  0  0  0  0  0
   -3.0374   -0.6853   -0.4091 H   0  0  0  0  0  0  0  0  0  0  0  0
   -2.2382   -2.1791    0.1441 H   0  0  0  0  0  0  0  0  0  0  0  0
    0.8370   -3.0926    0.0679 H   0  0  0  0  0  0  0  0  0  0  0  0
    3.0884   -0.2694   -1.0632 H   0  0  0  0  0  0  0  0  0  0  0  0
    1.8471    2.5072   -0.5702 H   0  0  0  0  0  0  0  0  0  0  0  0
   -1.2646    2.2070    1.7606 H   0  0  0  0  0  0  0  0  0  0  0  0
   -0.6731   -1.7821   -1.4809 H   0  0  0  0  0  0  0  0  0  0  0  0
  1  2  1  0  0  0  0
  2  3  1  0  0  0  0
  2  4  1  0  0  0  0
  4  5  1  0  0  0  0
  4  6  1  0  0  0  0
  6  7  1  0  0  0  0
  6  8  1  0  0  0  0
  8  9  1  0  0  0  0
  8 10  1  0  0  0  0
 10 11  1  0  0  0  0
  2 12  1  0  0  0  0
 10 12  1  0  0  0  0
 10 13  1  0  0  0  0
  8 14  1  0  0  0  0
  6 15  1  0  0  0  0
  4 16  1  0  0  0  0
  1 17  1  0  0  0  0
  1 18  1  0  0  0  0
  1 19  1  0  0  0  0
 13 20  1  0  0  0  0
 14 21  1  0  0  0  0
 15 22  1  0  0  0  0
 16 23  1  0  0  0  0
 17 24  1  0  0  0  0
M  END
