 xtb: 6.7.1 (edcfbbe)
          04032521483D

  5  4  0     0  0            999 V2000
    1.6335    0.0000   -0.0000 C   0  0  0  0  0  0  0  0  0  0  0  0
   -0.3198    0.0000   -0.0000 Br  0  0  0  0  0  0  0  0  0  0  0  0
    1.9621    0.7966   -0.6582 H   0  0  0  0  0  0  0  0  0  0  0  0
    1.9606    0.1719    1.0193 H   0  0  0  0  0  0  0  0  0  0  0  0
    1.9615   -0.9687   -0.3604 H   0  0  0  0  0  0  0  0  0  0  0  0
  1  2  1  0  0  0  0
  1  3  1  0  0  0  0
  1  4  1  0  0  0  0
  1  5  1  0  0  0  0
M  END
