24
 xtb: 6.7.1 (edcfbbe)
C           -2.57420505900709       -0.85090698012179        0.31978135950654
C           -1.14611306107696       -0.41625026255487        0.58898094425452
H           -1.00278207496552       -0.36762190780203        1.68280851402658
C           -0.80132963997760        0.94993687301390       -0.01913395601621
H           -1.02208761445357        0.93516974713219       -1.09217982511753
C            0.67714223084229        1.25575239138563        0.18165276841433
H            0.86451689512145        1.39409627275951        1.26044816155960
C            1.54040327170900        0.10248918890077       -0.31195048752633
H            1.42644099766446       -0.00212417492463       -1.40160243128163
C            1.09072160582247       -1.19869383697221        0.34163166177280
H            1.21375426336969       -1.15201452072003        1.43641588171356
O           -0.28847752404694       -1.42845858265913        0.03088008586454
O            1.83783951451275       -2.25130415825748       -0.20850698893062
O            2.89392137349138        0.41356868281535        0.02975749473370
O            0.97819876637273        2.46355021234331       -0.52501063077763
O           -1.62524548705769        1.97636881035321        0.53925366417243
O           -2.89199161075667       -0.90348549544393       -1.07589566191973
H           -3.25941134001173       -0.13002585481875        0.77248655148043
H           -2.73946012832182       -1.82862319356876        0.79230483590805
H            1.78732016138136       -3.00594269879066        0.39386741229623
H            3.46393782557243       -0.21662979419173       -0.43069475356543
H            1.91097909738852        2.66262493249498       -0.36782373812075
H           -1.43855254105547        2.01813684623861        1.48874390231374
H           -2.32920040865075       -1.57974429201667       -1.47550911369808
