 xtb: 6.7.1 (edcfbbe)
          04032521493D

 14 14  0     0  0            999 V2000
   -1.1987   -1.2017    0.0085 C   0  0  0  0  0  0  0  0  0  0  0  0
    0.1807   -1.2041    0.0021 C   0  0  0  0  0  0  0  0  0  0  0  0
    0.8640   -0.0000   -0.0006 C   0  0  0  0  0  0  0  0  0  0  0  0
    0.1807    1.2041    0.0020 C   0  0  0  0  0  0  0  0  0  0  0  0
   -1.1987    1.2017    0.0085 C   0  0  0  0  0  0  0  0  0  0  0  0
   -1.9174    0.0000    0.0105 C   0  0  0  0  0  0  0  0  0  0  0  0
   -3.2815    0.0000   -0.0470 N   0  0  0  0  0  0  0  0  0  0  0  0
    2.6138   -0.0000   -0.0040 Cl  0  0  0  0  0  0  0  0  0  0  0  0
   -1.7321   -2.1397    0.0099 H   0  0  0  0  0  0  0  0  0  0  0  0
    0.7260   -2.1345    0.0018 H   0  0  0  0  0  0  0  0  0  0  0  0
    0.7261    2.1345    0.0017 H   0  0  0  0  0  0  0  0  0  0  0  0
   -1.7321    2.1397    0.0098 H   0  0  0  0  0  0  0  0  0  0  0  0
   -3.7569   -0.8553    0.1823 H   0  0  0  0  0  0  0  0  0  0  0  0
   -3.7569    0.8553    0.1823 H   0  0  0  0  0  0  0  0  0  0  0  0
  1  2  4  0  0  0  0
  2  3  4  0  0  0  0
  3  4  4  0  0  0  0
  4  5  4  0  0  0  0
  1  6  4  0  0  0  0
  5  6  4  0  0  0  0
  6  7  4  0  0  0  0
  3  8  1  0  0  0  0
  1  9  1  0  0  0  0
  2 10  1  0  0  0  0
  4 11  1  0  0  0  0
  5 12  1  0  0  0  0
  7 13  1  0  0  0  0
  7 14  1  0  0  0  0
M  END
