17
 xtb: 6.7.1 (edcfbbe)
C           -2.82027480681034        1.03591392608538        0.00011565639156
O           -2.22601027596896       -0.27110692624463       -0.00009461964314
C           -0.85758939427292       -0.34344229592897       -0.00001662553031
C           -0.31753466131555       -1.63469837415300        0.00000082664160
C            1.06193818812438       -1.78989764731487        0.00006684337880
C            1.91622129078026       -0.68945089882260        0.00011379376888
C            1.35750182175610        0.58563939408086        0.00009308760865
C           -0.02643155975015        0.77746341954478        0.00003178206684
O            2.22353363328935        1.65631131678070        0.00013159659155
H           -3.89801065288940        0.86927856989317        0.00004979682476
H           -2.53637909913936        1.59710136427907       -0.89731090646375
H           -2.53642808784936        1.59676989599918        0.89776568612151
H           -0.98315249345158       -2.49089423211105       -0.00002889070343
H            1.48398700079293       -2.79006059550504        0.00008863128857
H            2.99408052097164       -0.80802418485850        0.00016762707792
H           -0.42239030648544        1.78644211579536        0.00001524870743
H            1.71299817630968        2.47798900344777        0.00014519887109
