 xtb: 6.7.1 (edcfbbe)
          04032521413D

 15 14  0     0  0            999 V2000
   -2.0693    0.0708   -0.0001 C   0  0  0  0  0  0  0  0  0  0  0  0
   -0.7066    0.6856    0.0002 C   0  0  0  0  0  0  0  0  0  0  0  0
    0.4516    0.0373    0.0002 C   0  0  0  0  0  0  0  0  0  0  0  0
    1.7618    0.7681   -0.0001 C   0  0  0  0  0  0  0  0  0  0  0  0
    0.5564   -1.4646    0.0000 C   0  0  0  0  0  0  0  0  0  0  0  0
   -2.6250    0.3972    0.8788 H   0  0  0  0  0  0  0  0  0  0  0  0
   -2.6244    0.3979   -0.8791 H   0  0  0  0  0  0  0  0  0  0  0  0
   -2.0232   -1.0133   -0.0006 H   0  0  0  0  0  0  0  0  0  0  0  0
   -0.7026    1.7690    0.0002 H   0  0  0  0  0  0  0  0  0  0  0  0
    2.3429    0.4959    0.8805 H   0  0  0  0  0  0  0  0  0  0  0  0
    2.3431    0.4942   -0.8801 H   0  0  0  0  0  0  0  0  0  0  0  0
    1.6134    1.8449   -0.0012 H   0  0  0  0  0  0  0  0  0  0  0  0
    0.0690   -1.8866    0.8774 H   0  0  0  0  0  0  0  0  0  0  0  0
    0.0809   -1.8851   -0.8846 H   0  0  0  0  0  0  0  0  0  0  0  0
    1.5984   -1.7715    0.0067 H   0  0  0  0  0  0  0  0  0  0  0  0
  1  2  1  0  0  0  0
  2  3  2  0  0  0  0
  3  4  1  0  0  0  0
  3  5  1  0  0  0  0
  1  6  1  0  0  0  0
  1  7  1  0  0  0  0
  1  8  1  0  0  0  0
  2  9  1  0  0  0  0
  4 10  1  0  0  0  0
  4 11  1  0  0  0  0
  4 12  1  0  0  0  0
  5 13  1  0  0  0  0
  5 14  1  0  0  0  0
  5 15  1  0  0  0  0
M  END
