 xtb: 6.7.1 (edcfbbe)
          04052516073D

 27 27  0     0  0            999 V2000
   -2.4983    0.8310   -1.0408 C   0  0  0  0  0  0  0  0  0  0  0  0
   -2.0258    0.3569    0.3401 C   0  0  0  0  0  0  0  0  0  0  0  0
   -2.9183    0.2464    0.9671 H   0  0  0  0  0  0  0  0  0  0  0  0
   -1.0578    1.3343    1.0024 C   0  0  0  0  0  0  0  0  0  0  0  0
    0.2860    1.4270    0.2732 C   0  0  0  0  0  0  0  0  0  0  0  0
    0.7679    0.0603   -0.2627 C   0  0  0  0  0  0  0  0  0  0  0  0
    0.4883   -0.0252   -1.3188 H   0  0  0  0  0  0  0  0  0  0  0  0
    0.0645   -1.0841    0.4770 C   0  0  0  0  0  0  0  0  0  0  0  0
   -1.4108   -1.0196    0.2111 C   0  0  0  0  0  0  0  0  0  0  0  0
   -2.0685   -1.9943   -0.1034 O   0  0  0  0  0  0  0  0  0  0  0  0
    2.2764   -0.0153   -0.1916 C   0  0  0  0  0  0  0  0  0  0  0  0
    2.9432   -0.6362    0.7679 C   0  0  0  0  0  0  0  0  0  0  0  0
    2.9787    0.7143   -1.2977 C   0  0  0  0  0  0  0  0  0  0  0  0
   -3.0331    1.7719   -0.9448 H   0  0  0  0  0  0  0  0  0  0  0  0
   -1.6570    0.9734   -1.7125 H   0  0  0  0  0  0  0  0  0  0  0  0
   -3.1647    0.0895   -1.4757 H   0  0  0  0  0  0  0  0  0  0  0  0
   -1.5155    2.3235    1.0406 H   0  0  0  0  0  0  0  0  0  0  0  0
   -0.8928    1.0132    2.0323 H   0  0  0  0  0  0  0  0  0  0  0  0
    0.2067    2.1301   -0.5558 H   0  0  0  0  0  0  0  0  0  0  0  0
    1.0291    1.8230    0.9678 H   0  0  0  0  0  0  0  0  0  0  0  0
    0.4513   -2.0536    0.1600 H   0  0  0  0  0  0  0  0  0  0  0  0
    0.2165   -0.9834    1.5528 H   0  0  0  0  0  0  0  0  0  0  0  0
    4.0199   -0.6408    0.7856 H   0  0  0  0  0  0  0  0  0  0  0  0
    2.4613   -1.1666    1.5694 H   0  0  0  0  0  0  0  0  0  0  0  0
    4.0559    0.6838   -1.1619 H   0  0  0  0  0  0  0  0  0  0  0  0
    2.7354    0.2614   -2.2580 H   0  0  0  0  0  0  0  0  0  0  0  0
    2.6574    1.7537   -1.3291 H   0  0  0  0  0  0  0  0  0  0  0  0
  1  2  1  0  0  0  0
  2  3  1  0  0  0  0
  2  4  1  0  0  0  0
  4  5  1  0  0  0  0
  5  6  1  0  0  0  0
  6  7  1  0  0  0  0
  6  8  1  0  0  0  0
  2  9  1  0  0  0  0
  8  9  1  0  0  0  0
  9 10  2  0  0  0  0
  6 11  1  0  0  0  0
 11 12  2  0  0  0  0
 11 13  1  0  0  0  0
  1 14  1  0  0  0  0
  1 15  1  0  0  0  0
  1 16  1  0  0  0  0
  4 17  1  0  0  0  0
  4 18  1  0  0  0  0
  5 19  1  0  0  0  0
  5 20  1  0  0  0  0
  8 21  1  0  0  0  0
  8 22  1  0  0  0  0
 12 23  1  0  0  0  0
 12 24  1  0  0  0  0
 13 25  1  0  0  0  0
 13 26  1  0  0  0  0
 13 27  1  0  0  0  0
M  END
