 xtb: 6.7.1 (edcfbbe)
          04052518533D

 23 23  0     0  0            999 V2000
   -2.2837   -0.7444   -1.0163 C   0  0  0  0  0  0  0  0  0  0  0  0
   -1.7560    0.0303    0.1544 C   0  0  0  0  0  0  0  0  0  0  0  0
   -2.5000    0.6464    0.8974 O   0  0  0  0  0  0  0  0  0  0  0  0
   -0.2595    0.0614    0.3674 C   0  0  0  0  0  0  0  0  0  0  0  0
    0.3651    1.0233   -0.6563 C   0  0  0  0  0  0  0  0  0  0  0  0
    1.8112    1.3379   -0.2563 C   0  0  0  0  0  0  0  0  0  0  0  0
    2.4868    0.1309    0.4080 C   0  0  0  0  0  0  0  0  0  0  0  0
    1.9011   -1.1686   -0.1333 C   0  0  0  0  0  0  0  0  0  0  0  0
    0.4287   -1.3099    0.2751 C   0  0  0  0  0  0  0  0  0  0  0  0
   -1.6004   -0.7081   -1.8578 H   0  0  0  0  0  0  0  0  0  0  0  0
   -2.4096   -1.7820   -0.7111 H   0  0  0  0  0  0  0  0  0  0  0  0
   -3.2593   -0.3570   -1.2982 H   0  0  0  0  0  0  0  0  0  0  0  0
   -0.0999    0.4918    1.3619 H   0  0  0  0  0  0  0  0  0  0  0  0
    0.3405    0.5594   -1.6424 H   0  0  0  0  0  0  0  0  0  0  0  0
   -0.2168    1.9456   -0.7057 H   0  0  0  0  0  0  0  0  0  0  0  0
    2.3651    1.6299   -1.1497 H   0  0  0  0  0  0  0  0  0  0  0  0
    1.8275    2.1845    0.4317 H   0  0  0  0  0  0  0  0  0  0  0  0
    3.5617    0.1638    0.2271 H   0  0  0  0  0  0  0  0  0  0  0  0
    2.3356    0.1628    1.4885 H   0  0  0  0  0  0  0  0  0  0  0  0
    1.9933   -1.1704   -1.2202 H   0  0  0  0  0  0  0  0  0  0  0  0
    2.4656   -2.0213    0.2456 H   0  0  0  0  0  0  0  0  0  0  0  0
   -0.0789   -1.9451   -0.4487 H   0  0  0  0  0  0  0  0  0  0  0  0
    0.3598   -1.7974    1.2490 H   0  0  0  0  0  0  0  0  0  0  0  0
  1  2  1  0  0  0  0
  2  3  2  0  0  0  0
  2  4  1  0  0  0  0
  4  5  1  0  0  0  0
  5  6  1  0  0  0  0
  6  7  1  0  0  0  0
  7  8  1  0  0  0  0
  4  9  1  0  0  0  0
  8  9  1  0  0  0  0
  1 10  1  0  0  0  0
  1 11  1  0  0  0  0
  1 12  1  0  0  0  0
  4 13  1  0  0  0  0
  5 14  1  0  0  0  0
  5 15  1  0  0  0  0
  6 16  1  0  0  0  0
  6 17  1  0  0  0  0
  7 18  1  0  0  0  0
  7 19  1  0  0  0  0
  8 20  1  0  0  0  0
  8 21  1  0  0  0  0
  9 22  1  0  0  0  0
  9 23  1  0  0  0  0
M  END
