 xtb: 6.7.1 (edcfbbe)
          04032521163D

 14 14  0     0  0            999 V2000
   -1.0391    0.7710   -0.0919 C   0  0  0  0  0  0  0  0  0  0  0  0
   -1.0372   -0.7697   -0.1073 C   0  0  0  0  0  0  0  0  0  0  0  0
    0.4138   -1.1514    0.2088 C   0  0  0  0  0  0  0  0  0  0  0  0
    1.1687   -0.0026   -0.2623 N   0  0  0  0  0  0  0  0  0  0  0  0
    0.4182    1.1532    0.1995 C   0  0  0  0  0  0  0  0  0  0  0  0
   -1.7090    1.1725    0.6658 H   0  0  0  0  0  0  0  0  0  0  0  0
   -1.3439    1.1610   -1.0606 H   0  0  0  0  0  0  0  0  0  0  0  0
   -1.7249   -1.1897    0.6238 H   0  0  0  0  0  0  0  0  0  0  0  0
   -1.3140   -1.1396   -1.0923 H   0  0  0  0  0  0  0  0  0  0  0  0
    0.5313   -1.3148    1.2944 H   0  0  0  0  0  0  0  0  0  0  0  0
    0.7386   -2.0517   -0.3138 H   0  0  0  0  0  0  0  0  0  0  0  0
    2.1218   -0.0025    0.0830 H   0  0  0  0  0  0  0  0  0  0  0  0
    0.5495    1.3337    1.2806 H   0  0  0  0  0  0  0  0  0  0  0  0
    0.7380    2.0449   -0.3407 H   0  0  0  0  0  0  0  0  0  0  0  0
  1  2  1  0  0  0  0
  2  3  1  0  0  0  0
  3  4  1  0  0  0  0
  1  5  1  0  0  0  0
  4  5  1  0  0  0  0
  1  6  1  0  0  0  0
  1  7  1  0  0  0  0
  2  8  1  0  0  0  0
  2  9  1  0  0  0  0
  3 10  1  0  0  0  0
  3 11  1  0  0  0  0
  4 12  1  0  0  0  0
  5 13  1  0  0  0  0
  5 14  1  0  0  0  0
M  END
