 xtb: 6.7.1 (edcfbbe)
          04062518003D

 24 24  0     0  0            999 V2000
   -2.3557   -1.0061    0.3609 C   0  0  0  0  0  0  0  0  0  0  0  0
   -1.0808   -0.2604    0.8037 C   0  0  0  0  0  0  0  0  0  0  0  0
   -1.2999    0.1860    1.7826 H   0  0  0  0  0  0  0  0  0  0  0  0
   -0.6753    0.8680   -0.1645 C   0  0  0  0  0  0  0  0  0  0  0  0
   -0.6705    0.5116   -1.1998 H   0  0  0  0  0  0  0  0  0  0  0  0
    0.7540    1.2948    0.1982 C   0  0  0  0  0  0  0  0  0  0  0  0
    0.7871    1.5089    1.2818 H   0  0  0  0  0  0  0  0  0  0  0  0
    1.7215    0.1298   -0.0978 C   0  0  0  0  0  0  0  0  0  0  0  0
    2.0469    0.1980   -1.1409 H   0  0  0  0  0  0  0  0  0  0  0  0
    0.9928   -1.2243    0.0632 C   0  0  0  0  0  0  0  0  0  0  0  0
    1.7057   -1.9709    0.4533 H   0  0  0  0  0  0  0  0  0  0  0  0
   -0.0061   -1.1722    1.0446 O   0  0  0  0  0  0  0  0  0  0  0  0
    0.5206   -1.6092   -1.1884 O   0  0  0  0  0  0  0  0  0  0  0  0
    2.8872    0.2113    0.6795 O   0  0  0  0  0  0  0  0  0  0  0  0
    1.0842    2.4533   -0.5241 O   0  0  0  0  0  0  0  0  0  0  0  0
   -1.6064    1.9145   -0.1233 O   0  0  0  0  0  0  0  0  0  0  0  0
   -2.2413   -1.6710   -0.8743 O   0  0  0  0  0  0  0  0  0  0  0  0
   -3.1784   -0.2852    0.3487 H   0  0  0  0  0  0  0  0  0  0  0  0
   -2.5634   -1.7834    1.0997 H   0  0  0  0  0  0  0  0  0  0  0  0
   -0.2495   -2.2009   -1.0833 H   0  0  0  0  0  0  0  0  0  0  0  0
    2.6768    0.0461    1.6106 H   0  0  0  0  0  0  0  0  0  0  0  0
    2.0195    2.6603   -0.3839 H   0  0  0  0  0  0  0  0  0  0  0  0
   -1.4062    2.5132    0.6098 H   0  0  0  0  0  0  0  0  0  0  0  0
   -2.3315   -1.0335   -1.5955 H   0  0  0  0  0  0  0  0  0  0  0  0
  1  2  1  0  0  0  0
  2  3  1  0  0  0  0
  2  4  1  0  0  0  0
  4  5  1  0  0  0  0
  4  6  1  0  0  0  0
  6  7  1  0  0  0  0
  6  8  1  0  0  0  0
  8  9  1  0  0  0  0
  8 10  1  0  0  0  0
 10 11  1  0  0  0  0
  2 12  1  0  0  0  0
 10 12  1  0  0  0  0
 10 13  1  0  0  0  0
  8 14  1  0  0  0  0
  6 15  1  0  0  0  0
  4 16  1  0  0  0  0
  1 17  1  0  0  0  0
  1 18  1  0  0  0  0
  1 19  1  0  0  0  0
 13 20  1  0  0  0  0
 14 21  1  0  0  0  0
 15 22  1  0  0  0  0
 16 23  1  0  0  0  0
 17 24  1  0  0  0  0
M  END
