 xtb: 6.7.1 (edcfbbe)
          04032521163D

 19 19  0     0  0            999 V2000
   -3.0825    0.3855   -0.0005 C   0  0  0  0  0  0  0  0  0  0  0  0
   -1.6228    0.0419    0.0004 C   0  0  0  0  0  0  0  0  0  0  0  0
   -1.1873   -1.2748    0.0002 C   0  0  0  0  0  0  0  0  0  0  0  0
    0.1629   -1.5696   -0.0001 C   0  0  0  0  0  0  0  0  0  0  0  0
    1.1062   -0.5507   -0.0002 C   0  0  0  0  0  0  0  0  0  0  0  0
    0.6925    0.7852    0.0001 C   0  0  0  0  0  0  0  0  0  0  0  0
   -0.6674    1.0509    0.0004 C   0  0  0  0  0  0  0  0  0  0  0  0
    1.6972    1.9031    0.0002 C   0  0  0  0  0  0  0  0  0  0  0  0
    2.4244   -0.9130   -0.0004 O   0  0  0  0  0  0  0  0  0  0  0  0
   -3.6907   -0.5147    0.0161 H   0  0  0  0  0  0  0  0  0  0  0  0
   -3.3304    0.9906    0.8700 H   0  0  0  0  0  0  0  0  0  0  0  0
   -3.3356    0.9607   -0.8898 H   0  0  0  0  0  0  0  0  0  0  0  0
   -1.9054   -2.0815    0.0003 H   0  0  0  0  0  0  0  0  0  0  0  0
    0.5117   -2.5907   -0.0002 H   0  0  0  0  0  0  0  0  0  0  0  0
   -0.9959    2.0809    0.0006 H   0  0  0  0  0  0  0  0  0  0  0  0
    2.3295    1.8588   -0.8868 H   0  0  0  0  0  0  0  0  0  0  0  0
    1.1861    2.8615    0.0012 H   0  0  0  0  0  0  0  0  0  0  0  0
    2.3308    1.8576    0.8862 H   0  0  0  0  0  0  0  0  0  0  0  0
    2.9875   -0.1253   -0.0006 H   0  0  0  0  0  0  0  0  0  0  0  0
  1  2  1  0  0  0  0
  2  3  4  0  0  0  0
  3  4  4  0  0  0  0
  4  5  4  0  0  0  0
  5  6  4  0  0  0  0
  2  7  4  0  0  0  0
  6  7  4  0  0  0  0
  6  8  1  0  0  0  0
  5  9  1  0  0  0  0
  1 10  1  0  0  0  0
  1 11  1  0  0  0  0
  1 12  1  0  0  0  0
  3 13  1  0  0  0  0
  4 14  1  0  0  0  0
  7 15  1  0  0  0  0
  8 16  1  0  0  0  0
  8 17  1  0  0  0  0
  8 18  1  0  0  0  0
  9 19  1  0  0  0  0
M  END
