 xtb: 6.7.1 (edcfbbe)
          04062518003D

 24 24  0     0  0            999 V2000
   -1.6667   -1.3191   -0.6356 C   0  0  0  0  0  0  0  0  0  0  0  0
   -1.1467   -0.5024    0.5564 C   0  0  0  0  0  0  0  0  0  0  0  0
   -1.9172   -0.5079    1.3350 H   0  0  0  0  0  0  0  0  0  0  0  0
   -0.8757    0.9736    0.1727 C   0  0  0  0  0  0  0  0  0  0  0  0
   -1.2307    1.1559   -0.8493 H   0  0  0  0  0  0  0  0  0  0  0  0
    0.6253    1.2778    0.1986 C   0  0  0  0  0  0  0  0  0  0  0  0
    0.9272    1.4326    1.2453 H   0  0  0  0  0  0  0  0  0  0  0  0
    1.4198    0.1004   -0.3780 C   0  0  0  0  0  0  0  0  0  0  0  0
    1.0804   -0.0832   -1.4071 H   0  0  0  0  0  0  0  0  0  0  0  0
    1.1662   -1.1632    0.4614 C   0  0  0  0  0  0  0  0  0  0  0  0
    1.9455   -1.2298    1.2366 H   0  0  0  0  0  0  0  0  0  0  0  0
   -0.0347   -1.1174    1.1891 O   0  0  0  0  0  0  0  0  0  0  0  0
    1.2215   -2.2627   -0.3980 O   0  0  0  0  0  0  0  0  0  0  0  0
    2.7775    0.4633   -0.3660 O   0  0  0  0  0  0  0  0  0  0  0  0
    0.8479    2.4398   -0.5560 O   0  0  0  0  0  0  0  0  0  0  0  0
   -1.4998    1.8611    1.0693 O   0  0  0  0  0  0  0  0  0  0  0  0
   -2.8687   -0.7250   -1.0669 O   0  0  0  0  0  0  0  0  0  0  0  0
   -1.8340   -2.3489   -0.2982 H   0  0  0  0  0  0  0  0  0  0  0  0
   -0.9203   -1.3261   -1.4391 H   0  0  0  0  0  0  0  0  0  0  0  0
    1.1832   -3.0879    0.1094 H   0  0  0  0  0  0  0  0  0  0  0  0
    3.2980   -0.1920   -0.8522 H   0  0  0  0  0  0  0  0  0  0  0  0
    1.8044    2.5978   -0.5888 H   0  0  0  0  0  0  0  0  0  0  0  0
   -2.4433    1.9161    0.8625 H   0  0  0  0  0  0  0  0  0  0  0  0
   -3.2421   -1.2470   -1.7909 H   0  0  0  0  0  0  0  0  0  0  0  0
  1  2  1  0  0  0  0
  2  3  1  0  0  0  0
  2  4  1  0  0  0  0
  4  5  1  0  0  0  0
  4  6  1  0  0  0  0
  6  7  1  0  0  0  0
  6  8  1  0  0  0  0
  8  9  1  0  0  0  0
  8 10  1  0  0  0  0
 10 11  1  0  0  0  0
  2 12  1  0  0  0  0
 10 12  1  0  0  0  0
 10 13  1  0  0  0  0
  8 14  1  0  0  0  0
  6 15  1  0  0  0  0
  4 16  1  0  0  0  0
  1 17  1  0  0  0  0
  1 18  1  0  0  0  0
  1 19  1  0  0  0  0
 13 20  1  0  0  0  0
 14 21  1  0  0  0  0
 15 22  1  0  0  0  0
 16 23  1  0  0  0  0
 17 24  1  0  0  0  0
M  END
