18
 xtb: 6.7.1 (edcfbbe)
C            2.16247252836679       -0.00525763512885        0.02510894329451
C            0.87203540973638       -0.70209697397900        0.44848690476339
C           -0.42443096173864        0.00102217508714        0.03339703328353
C           -0.48350017692296        1.44830382588024        0.51446630791088
C           -1.62907094453920       -0.78245522110954        0.54920189511233
O           -0.43845453289391       -0.01922132642416       -1.42399631468687
H            2.28881676258030        0.95708746397577        0.53024777302682
H            2.18876608517937        0.17207948561986       -1.05447654335128
H            3.02748291385353       -0.62559991755377        0.28031445161128
H            0.85328614521770       -0.81345330412815        1.53883635386864
H            0.84503793909597       -1.71526299136252        0.02808131595241
H           -1.44400559108899        1.89776402981278        0.23866887944473
H           -0.38469695180858        1.49821396776875        1.60397956506014
H            0.31552753718409        2.04511743429278        0.06611896992550
H           -1.65314686951810       -0.77764265616239        1.64382070490683
H           -2.56071564355340       -0.33371918814705        0.18659030787655
H           -1.58627973300865       -1.82179160718387        0.20769563213550
H           -1.25446854412079        0.41722270901219       -1.70311705485585
