5
 xtb: 6.7.1 (edcfbbe)
C           -0.73705245625143       -0.00003096802452        0.00000953491513
F            0.67483939444594        0.00005309527540        0.00000677945375
H           -1.07977810129040        0.97936096433260        0.34307941542588
H           -1.07976341540390       -0.19257316188827       -1.01976514104621
H           -1.07974496050039       -0.78687994700820        0.67664108909436
