 xtb: 6.7.1 (edcfbbe)
          04042519583D

 16 16  0     0  0            999 V2000
   -2.2786    0.3013    0.1045 C   0  0  0  0  0  0  0  0  0  0  0  0
   -1.3667    1.3322   -0.0491 C   0  0  0  0  0  0  0  0  0  0  0  0
   -0.0182    1.0509   -0.1764 C   0  0  0  0  0  0  0  0  0  0  0  0
    0.4329   -0.2625   -0.1450 C   0  0  0  0  0  0  0  0  0  0  0  0
   -0.4860   -1.2916    0.0122 C   0  0  0  0  0  0  0  0  0  0  0  0
   -1.8358   -1.0106    0.1326 C   0  0  0  0  0  0  0  0  0  0  0  0
    1.9053   -0.5607   -0.2951 C   0  0  0  0  0  0  0  0  0  0  0  0
    2.7472    0.4001    0.3074 O   0  0  0  0  0  0  0  0  0  0  0  0
   -3.3313    0.5195    0.2024 H   0  0  0  0  0  0  0  0  0  0  0  0
   -1.7061    2.3568   -0.0730 H   0  0  0  0  0  0  0  0  0  0  0  0
    0.7005    1.8480   -0.2998 H   0  0  0  0  0  0  0  0  0  0  0  0
   -0.1426   -2.3156    0.0376 H   0  0  0  0  0  0  0  0  0  0  0  0
   -2.5432   -1.8174    0.2531 H   0  0  0  0  0  0  0  0  0  0  0  0
    2.1262   -1.5636    0.0946 H   0  0  0  0  0  0  0  0  0  0  0  0
    2.1712   -0.5458   -1.3579 H   0  0  0  0  0  0  0  0  0  0  0  0
    2.5816    0.4101    1.2601 H   0  0  0  0  0  0  0  0  0  0  0  0
  1  2  4  0  0  0  0
  2  3  4  0  0  0  0
  3  4  4  0  0  0  0
  4  5  4  0  0  0  0
  1  6  4  0  0  0  0
  5  6  4  0  0  0  0
  4  7  1  0  0  0  0
  7  8  1  0  0  0  0
  1  9  1  0  0  0  0
  2 10  1  0  0  0  0
  3 11  1  0  0  0  0
  5 12  1  0  0  0  0
  6 13  1  0  0  0  0
  7 14  1  0  0  0  0
  7 15  1  0  0  0  0
  8 16  1  0  0  0  0
M  END
