 xtb: 6.7.1 (edcfbbe)
          04042519553D

 16 16  0     0  0            999 V2000
   -2.2789    0.3011    0.1033 C   0  0  0  0  0  0  0  0  0  0  0  0
   -1.3668    1.3321   -0.0477 C   0  0  0  0  0  0  0  0  0  0  0  0
   -0.0181    1.0509   -0.1736 C   0  0  0  0  0  0  0  0  0  0  0  0
    0.4328   -0.2625   -0.1435 C   0  0  0  0  0  0  0  0  0  0  0  0
   -0.4863   -1.2918    0.0117 C   0  0  0  0  0  0  0  0  0  0  0  0
   -1.8362   -1.0109    0.1306 C   0  0  0  0  0  0  0  0  0  0  0  0
    1.9051   -0.5614   -0.2940 C   0  0  0  0  0  0  0  0  0  0  0  0
    2.7479    0.4021    0.3027 O   0  0  0  0  0  0  0  0  0  0  0  0
   -3.3318    0.5191    0.1998 H   0  0  0  0  0  0  0  0  0  0  0  0
   -1.7062    2.3567   -0.0714 H   0  0  0  0  0  0  0  0  0  0  0  0
    0.7006    1.8482   -0.2946 H   0  0  0  0  0  0  0  0  0  0  0  0
   -0.1428   -2.3158    0.0366 H   0  0  0  0  0  0  0  0  0  0  0  0
   -2.5437   -1.8177    0.2498 H   0  0  0  0  0  0  0  0  0  0  0  0
    2.1265   -1.5625    0.1002 H   0  0  0  0  0  0  0  0  0  0  0  0
    2.1691   -0.5514   -1.3573 H   0  0  0  0  0  0  0  0  0  0  0  0
    2.5852    0.4149    1.2559 H   0  0  0  0  0  0  0  0  0  0  0  0
  1  2  4  0  0  0  0
  2  3  4  0  0  0  0
  3  4  4  0  0  0  0
  4  5  4  0  0  0  0
  1  6  4  0  0  0  0
  5  6  4  0  0  0  0
  4  7  1  0  0  0  0
  7  8  1  0  0  0  0
  1  9  1  0  0  0  0
  2 10  1  0  0  0  0
  3 11  1  0  0  0  0
  5 12  1  0  0  0  0
  6 13  1  0  0  0  0
  7 14  1  0  0  0  0
  7 15  1  0  0  0  0
  8 16  1  0  0  0  0
M  END
