 xtb: 6.7.1 (edcfbbe)
          04062518003D

 24 24  0     0  0            999 V2000
   -2.0016   -0.6001   -0.7376 C   0  0  0  0  0  0  0  0  0  0  0  0
   -1.1842   -0.1077    0.4711 C   0  0  0  0  0  0  0  0  0  0  0  0
   -1.8538   -0.0749    1.3392 H   0  0  0  0  0  0  0  0  0  0  0  0
   -0.6159    1.3106    0.2637 C   0  0  0  0  0  0  0  0  0  0  0  0
   -1.3518    1.8814   -0.3140 H   0  0  0  0  0  0  0  0  0  0  0  0
    0.7234    1.2961   -0.5031 C   0  0  0  0  0  0  0  0  0  0  0  0
    1.1786    2.2891   -0.3863 H   0  0  0  0  0  0  0  0  0  0  0  0
    1.6871    0.2754    0.1253 C   0  0  0  0  0  0  0  0  0  0  0  0
    2.5754    0.1996   -0.5186 H   0  0  0  0  0  0  0  0  0  0  0  0
    1.0192   -1.1108    0.1702 C   0  0  0  0  0  0  0  0  0  0  0  0
    1.6178   -1.8024    0.7790 H   0  0  0  0  0  0  0  0  0  0  0  0
   -0.2070   -1.0733    0.8613 O   0  0  0  0  0  0  0  0  0  0  0  0
    0.9360   -1.6852   -1.0942 O   0  0  0  0  0  0  0  0  0  0  0  0
    2.0207    0.7403    1.4082 O   0  0  0  0  0  0  0  0  0  0  0  0
    0.5646    0.9611   -1.8619 O   0  0  0  0  0  0  0  0  0  0  0  0
   -0.4839    2.0040    1.4785 O   0  0  0  0  0  0  0  0  0  0  0  0
   -2.5522   -1.8719   -0.4976 O   0  0  0  0  0  0  0  0  0  0  0  0
   -1.3818   -0.6202   -1.6414 H   0  0  0  0  0  0  0  0  0  0  0  0
   -2.8471    0.0720   -0.8972 H   0  0  0  0  0  0  0  0  0  0  0  0
    0.7468   -0.9962   -1.7563 H   0  0  0  0  0  0  0  0  0  0  0  0
    2.6854    0.1645    1.8123 H   0  0  0  0  0  0  0  0  0  0  0  0
    0.2190    1.7190   -2.3538 H   0  0  0  0  0  0  0  0  0  0  0  0
    0.2681    1.6329    1.9706 H   0  0  0  0  0  0  0  0  0  0  0  0
   -1.8385   -2.4553   -0.1976 H   0  0  0  0  0  0  0  0  0  0  0  0
  1  2  1  0  0  0  0
  2  3  1  0  0  0  0
  2  4  1  0  0  0  0
  4  5  1  0  0  0  0
  4  6  1  0  0  0  0
  6  7  1  0  0  0  0
  6  8  1  0  0  0  0
  8  9  1  0  0  0  0
  8 10  1  0  0  0  0
 10 11  1  0  0  0  0
  2 12  1  0  0  0  0
 10 12  1  0  0  0  0
 10 13  1  0  0  0  0
  8 14  1  0  0  0  0
  6 15  1  0  0  0  0
  4 16  1  0  0  0  0
  1 17  1  0  0  0  0
  1 18  1  0  0  0  0
  1 19  1  0  0  0  0
 13 20  1  0  0  0  0
 14 21  1  0  0  0  0
 15 22  1  0  0  0  0
 16 23  1  0  0  0  0
 17 24  1  0  0  0  0
M  END
