 xtb: 6.7.1 (edcfbbe)
          04032521003D

 19 18  0     0  0            999 V2000
   -1.6392   -0.9639   -0.8303 C   0  0  0  0  0  0  0  0  0  0  0  0
   -0.9014    0.0215    0.0227 C   0  0  0  0  0  0  0  0  0  0  0  0
   -1.4951    0.8185    0.7260 O   0  0  0  0  0  0  0  0  0  0  0  0
    0.6272    0.0076   -0.0003 C   0  0  0  0  0  0  0  0  0  0  0  0
    1.0889   -0.2762    1.4373 C   0  0  0  0  0  0  0  0  0  0  0  0
    1.0824    1.4153   -0.4128 C   0  0  0  0  0  0  0  0  0  0  0  0
    1.2352   -1.0251   -0.9462 C   0  0  0  0  0  0  0  0  0  0  0  0
   -1.3724   -0.8215   -1.8738 H   0  0  0  0  0  0  0  0  0  0  0  0
   -1.3626   -1.9758   -0.5473 H   0  0  0  0  0  0  0  0  0  0  0  0
   -2.7098   -0.8267   -0.7025 H   0  0  0  0  0  0  0  0  0  0  0  0
    0.7943   -1.2782    1.7420 H   0  0  0  0  0  0  0  0  0  0  0  0
    2.1703   -0.1941    1.5048 H   0  0  0  0  0  0  0  0  0  0  0  0
    0.6375    0.4385    2.1217 H   0  0  0  0  0  0  0  0  0  0  0  0
    2.1630    1.4969   -0.3337 H   0  0  0  0  0  0  0  0  0  0  0  0
    0.6240    2.1598    0.2342 H   0  0  0  0  0  0  0  0  0  0  0  0
    0.7897    1.6247   -1.4396 H   0  0  0  0  0  0  0  0  0  0  0  0
    2.3193   -0.9573   -0.8923 H   0  0  0  0  0  0  0  0  0  0  0  0
    0.9390   -0.8427   -1.9752 H   0  0  0  0  0  0  0  0  0  0  0  0
    0.9486   -2.0352   -0.6683 H   0  0  0  0  0  0  0  0  0  0  0  0
  1  2  1  0  0  0  0
  2  3  2  0  0  0  0
  2  4  1  0  0  0  0
  4  5  1  0  0  0  0
  4  6  1  0  0  0  0
  4  7  1  0  0  0  0
  1  8  1  0  0  0  0
  1  9  1  0  0  0  0
  1 10  1  0  0  0  0
  5 11  1  0  0  0  0
  5 12  1  0  0  0  0
  5 13  1  0  0  0  0
  6 14  1  0  0  0  0
  6 15  1  0  0  0  0
  6 16  1  0  0  0  0
  7 17  1  0  0  0  0
  7 18  1  0  0  0  0
  7 19  1  0  0  0  0
M  END
