 xtb: 6.7.1 (edcfbbe)
          04062518003D

 24 24  0     0  0            999 V2000
   -2.3789   -1.1752   -0.3169 C   0  0  0  0  0  0  0  0  0  0  0  0
   -1.0657   -0.6204    0.2461 C   0  0  0  0  0  0  0  0  0  0  0  0
   -1.1192   -0.6014    1.3460 H   0  0  0  0  0  0  0  0  0  0  0  0
   -0.7884    0.8144   -0.2441 C   0  0  0  0  0  0  0  0  0  0  0  0
   -0.8356    0.8184   -1.3484 H   0  0  0  0  0  0  0  0  0  0  0  0
    0.6219    1.2350    0.1896 C   0  0  0  0  0  0  0  0  0  0  0  0
    0.6395    1.3215    1.2828 H   0  0  0  0  0  0  0  0  0  0  0  0
    1.6576    0.1805   -0.2396 C   0  0  0  0  0  0  0  0  0  0  0  0
    1.6852    0.1272   -1.3418 H   0  0  0  0  0  0  0  0  0  0  0  0
    1.2377   -1.1990    0.2993 C   0  0  0  0  0  0  0  0  0  0  0  0
    1.2467   -1.1687    1.4001 H   0  0  0  0  0  0  0  0  0  0  0  0
   -0.0563   -1.5118   -0.1810 O   0  0  0  0  0  0  0  0  0  0  0  0
    2.0828   -2.2205   -0.0616 O   0  0  0  0  0  0  0  0  0  0  0  0
    2.9299    0.4971    0.2584 O   0  0  0  0  0  0  0  0  0  0  0  0
    0.9999    2.5024   -0.2864 O   0  0  0  0  0  0  0  0  0  0  0  0
   -1.7008    1.7406    0.2832 O   0  0  0  0  0  0  0  0  0  0  0  0
   -3.4520   -0.3979    0.1605 O   0  0  0  0  0  0  0  0  0  0  0  0
   -2.4620   -2.2185    0.0054 H   0  0  0  0  0  0  0  0  0  0  0  0
   -2.3267   -1.1478   -1.4123 H   0  0  0  0  0  0  0  0  0  0  0  0
    2.0748   -2.3339   -1.0257 H   0  0  0  0  0  0  0  0  0  0  0  0
    3.0542    1.4576    0.1761 H   0  0  0  0  0  0  0  0  0  0  0  0
    0.6975    2.6212   -1.1984 H   0  0  0  0  0  0  0  0  0  0  0  0
   -2.5886    1.3398    0.2816 H   0  0  0  0  0  0  0  0  0  0  0  0
   -4.2887   -0.7859   -0.1333 H   0  0  0  0  0  0  0  0  0  0  0  0
  1  2  1  0  0  0  0
  2  3  1  0  0  0  0
  2  4  1  0  0  0  0
  4  5  1  0  0  0  0
  4  6  1  0  0  0  0
  6  7  1  0  0  0  0
  6  8  1  0  0  0  0
  8  9  1  0  0  0  0
  8 10  1  0  0  0  0
 10 11  1  0  0  0  0
  2 12  1  0  0  0  0
 10 12  1  0  0  0  0
 10 13  1  0  0  0  0
  8 14  1  0  0  0  0
  6 15  1  0  0  0  0
  4 16  1  0  0  0  0
  1 17  1  0  0  0  0
  1 18  1  0  0  0  0
  1 19  1  0  0  0  0
 13 20  1  0  0  0  0
 14 21  1  0  0  0  0
 15 22  1  0  0  0  0
 16 23  1  0  0  0  0
 17 24  1  0  0  0  0
M  END
