 xtb: 6.7.1 (edcfbbe)
          04042521543D

 16 15  0     0  0            999 V2000
    1.5686    0.5783   -0.8969 C   0  0  0  0  0  0  0  0  0  0  0  0
    0.7221   -0.1773    0.0825 C   0  0  0  0  0  0  0  0  0  0  0  0
    1.2046   -1.1045    0.8942 C   0  0  0  0  0  0  0  0  0  0  0  0
   -0.7219    0.1775    0.0825 C   0  0  0  0  0  0  0  0  0  0  0  0
   -1.2049    1.1045    0.8942 C   0  0  0  0  0  0  0  0  0  0  0  0
   -1.5685   -0.5783   -0.8969 C   0  0  0  0  0  0  0  0  0  0  0  0
    2.6079    0.2682   -0.8315 H   0  0  0  0  0  0  0  0  0  0  0  0
    1.5001    1.6463   -0.6948 H   0  0  0  0  0  0  0  0  0  0  0  0
    1.2118    0.4106   -1.9119 H   0  0  0  0  0  0  0  0  0  0  0  0
    0.5727   -1.6301    1.5903 H   0  0  0  0  0  0  0  0  0  0  0  0
    2.2482   -1.3717    0.8968 H   0  0  0  0  0  0  0  0  0  0  0  0
   -2.2486    1.3712    0.8965 H   0  0  0  0  0  0  0  0  0  0  0  0
   -0.5735    1.6302    1.5907 H   0  0  0  0  0  0  0  0  0  0  0  0
   -2.6074   -0.2670   -0.8328 H   0  0  0  0  0  0  0  0  0  0  0  0
   -1.2105   -0.4119   -1.9117 H   0  0  0  0  0  0  0  0  0  0  0  0
   -1.5012   -1.6462   -0.6937 H   0  0  0  0  0  0  0  0  0  0  0  0
  1  2  1  0  0  0  0
  2  3  2  0  0  0  0
  2  4  1  0  0  0  0
  4  5  2  0  0  0  0
  4  6  1  0  0  0  0
  1  7  1  0  0  0  0
  1  8  1  0  0  0  0
  1  9  1  0  0  0  0
  3 10  1  0  0  0  0
  3 11  1  0  0  0  0
  5 12  1  0  0  0  0
  5 13  1  0  0  0  0
  6 14  1  0  0  0  0
  6 15  1  0  0  0  0
  6 16  1  0  0  0  0
M  END
