 xtb: 6.7.1 (edcfbbe)
          04062518003D

 24 24  0     0  0            999 V2000
   -2.3390   -0.8060    0.6771 C   0  0  0  0  0  0  0  0  0  0  0  0
   -0.8792   -0.3367    0.7513 C   0  0  0  0  0  0  0  0  0  0  0  0
   -0.6356   -0.0722    1.7889 H   0  0  0  0  0  0  0  0  0  0  0  0
   -0.6559    0.8983   -0.1245 C   0  0  0  0  0  0  0  0  0  0  0  0
   -0.9628    0.6493   -1.1507 H   0  0  0  0  0  0  0  0  0  0  0  0
    0.8372    1.2981   -0.1484 C   0  0  0  0  0  0  0  0  0  0  0  0
    0.9618    2.1527    0.5294 H   0  0  0  0  0  0  0  0  0  0  0  0
    1.7516    0.1686    0.3718 C   0  0  0  0  0  0  0  0  0  0  0  0
    2.7524    0.3040   -0.0677 H   0  0  0  0  0  0  0  0  0  0  0  0
    1.2164   -1.1798   -0.1336 C   0  0  0  0  0  0  0  0  0  0  0  0
    1.8235   -2.0172    0.2378 H   0  0  0  0  0  0  0  0  0  0  0  0
   -0.0883   -1.4440    0.3285 O   0  0  0  0  0  0  0  0  0  0  0  0
    1.3036   -1.2575   -1.5224 O   0  0  0  0  0  0  0  0  0  0  0  0
    1.8062    0.2538    1.7708 O   0  0  0  0  0  0  0  0  0  0  0  0
    1.1524    1.6324   -1.4819 O   0  0  0  0  0  0  0  0  0  0  0  0
   -1.4524    1.9332    0.3944 O   0  0  0  0  0  0  0  0  0  0  0  0
   -2.6876   -1.2404   -0.6119 O   0  0  0  0  0  0  0  0  0  0  0  0
   -2.9930    0.0324    0.9189 H   0  0  0  0  0  0  0  0  0  0  0  0
   -2.4836   -1.6105    1.4078 H   0  0  0  0  0  0  0  0  0  0  0  0
    1.0173   -0.4221   -1.9332 H   0  0  0  0  0  0  0  0  0  0  0  0
    2.4209   -0.4064    2.1226 H   0  0  0  0  0  0  0  0  0  0  0  0
    1.9812    2.1307   -1.5224 H   0  0  0  0  0  0  0  0  0  0  0  0
   -1.5272    2.6424   -0.2600 H   0  0  0  0  0  0  0  0  0  0  0  0
   -2.0703   -1.9451   -0.8610 H   0  0  0  0  0  0  0  0  0  0  0  0
  1  2  1  0  0  0  0
  2  3  1  0  0  0  0
  2  4  1  0  0  0  0
  4  5  1  0  0  0  0
  4  6  1  0  0  0  0
  6  7  1  0  0  0  0
  6  8  1  0  0  0  0
  8  9  1  0  0  0  0
  8 10  1  0  0  0  0
 10 11  1  0  0  0  0
  2 12  1  0  0  0  0
 10 12  1  0  0  0  0
 10 13  1  0  0  0  0
  8 14  1  0  0  0  0
  6 15  1  0  0  0  0
  4 16  1  0  0  0  0
  1 17  1  0  0  0  0
  1 18  1  0  0  0  0
  1 19  1  0  0  0  0
 13 20  1  0  0  0  0
 14 21  1  0  0  0  0
 15 22  1  0  0  0  0
 16 23  1  0  0  0  0
 17 24  1  0  0  0  0
M  END
