 xtb: 6.7.1 (edcfbbe)
          04062518003D

 24 24  0     0  0            999 V2000
   -2.0992   -1.2092   -0.1788 C   0  0  0  0  0  0  0  0  0  0  0  0
   -1.2449   -0.3485    0.7736 C   0  0  0  0  0  0  0  0  0  0  0  0
   -1.8302   -0.1666    1.6805 H   0  0  0  0  0  0  0  0  0  0  0  0
   -0.9197    1.0194    0.1455 C   0  0  0  0  0  0  0  0  0  0  0  0
   -1.2199    1.0008   -0.9164 H   0  0  0  0  0  0  0  0  0  0  0  0
    0.5865    1.2930    0.2149 C   0  0  0  0  0  0  0  0  0  0  0  0
    0.8851    1.4239    1.2610 H   0  0  0  0  0  0  0  0  0  0  0  0
    1.3462    0.1032   -0.3820 C   0  0  0  0  0  0  0  0  0  0  0  0
    1.0330   -0.0387   -1.4295 H   0  0  0  0  0  0  0  0  0  0  0  0
    1.0060   -1.1754    0.4016 C   0  0  0  0  0  0  0  0  0  0  0  0
    1.8498   -1.3919    1.0703 H   0  0  0  0  0  0  0  0  0  0  0  0
   -0.0896   -1.0244    1.2659 O   0  0  0  0  0  0  0  0  0  0  0  0
    0.8161   -2.2173   -0.5111 O   0  0  0  0  0  0  0  0  0  0  0  0
    2.7362    0.2932   -0.3193 O   0  0  0  0  0  0  0  0  0  0  0  0
    0.9310    2.4923   -0.4337 O   0  0  0  0  0  0  0  0  0  0  0  0
   -1.6575    2.0018    0.8316 O   0  0  0  0  0  0  0  0  0  0  0  0
   -1.6026   -1.2814   -1.4920 O   0  0  0  0  0  0  0  0  0  0  0  0
   -3.0841   -0.7447   -0.2565 H   0  0  0  0  0  0  0  0  0  0  0  0
   -2.2079   -2.2089    0.2569 H   0  0  0  0  0  0  0  0  0  0  0  0
    0.8493   -3.0734   -0.0570 H   0  0  0  0  0  0  0  0  0  0  0  0
    2.9301    1.2218   -0.5296 H   0  0  0  0  0  0  0  0  0  0  0  0
    0.6570    2.4503   -1.3634 H   0  0  0  0  0  0  0  0  0  0  0  0
   -1.3153    2.8772    0.5918 H   0  0  0  0  0  0  0  0  0  0  0  0
   -0.7509   -1.7589   -1.4703 H   0  0  0  0  0  0  0  0  0  0  0  0
  1  2  1  0  0  0  0
  2  3  1  0  0  0  0
  2  4  1  0  0  0  0
  4  5  1  0  0  0  0
  4  6  1  0  0  0  0
  6  7  1  0  0  0  0
  6  8  1  0  0  0  0
  8  9  1  0  0  0  0
  8 10  1  0  0  0  0
 10 11  1  0  0  0  0
  2 12  1  0  0  0  0
 10 12  1  0  0  0  0
 10 13  1  0  0  0  0
  8 14  1  0  0  0  0
  6 15  1  0  0  0  0
  4 16  1  0  0  0  0
  1 17  1  0  0  0  0
  1 18  1  0  0  0  0
  1 19  1  0  0  0  0
 13 20  1  0  0  0  0
 14 21  1  0  0  0  0
 15 22  1  0  0  0  0
 16 23  1  0  0  0  0
 17 24  1  0  0  0  0
M  END
