 xtb: 6.7.1 (edcfbbe)
          04062518003D

 24 24  0     0  0            999 V2000
   -2.5752   -0.6867   -0.2631 C   0  0  0  0  0  0  0  0  0  0  0  0
   -1.1813   -0.2820    0.2349 C   0  0  0  0  0  0  0  0  0  0  0  0
   -1.1971   -0.1947    1.3325 H   0  0  0  0  0  0  0  0  0  0  0  0
   -0.7190    1.0632   -0.3620 C   0  0  0  0  0  0  0  0  0  0  0  0
   -0.7031    0.9685   -1.4571 H   0  0  0  0  0  0  0  0  0  0  0  0
    0.7069    1.3478    0.1303 C   0  0  0  0  0  0  0  0  0  0  0  0
    0.6714    1.5142    1.2131 H   0  0  0  0  0  0  0  0  0  0  0  0
    1.6395    0.1602   -0.1623 C   0  0  0  0  0  0  0  0  0  0  0  0
    1.7955    0.0667   -1.2494 H   0  0  0  0  0  0  0  0  0  0  0  0
    1.0267   -1.1607    0.3212 C   0  0  0  0  0  0  0  0  0  0  0  0
    1.0265   -1.1530    1.4298 H   0  0  0  0  0  0  0  0  0  0  0  0
   -0.2956   -1.3207   -0.1478 O   0  0  0  0  0  0  0  0  0  0  0  0
    1.7822   -2.1932   -0.1865 O   0  0  0  0  0  0  0  0  0  0  0  0
    2.8683    0.3266    0.4943 O   0  0  0  0  0  0  0  0  0  0  0  0
    1.2493    2.5298   -0.4003 O   0  0  0  0  0  0  0  0  0  0  0  0
   -1.5343    2.1309    0.0498 O   0  0  0  0  0  0  0  0  0  0  0  0
   -3.0409   -1.8582    0.3515 O   0  0  0  0  0  0  0  0  0  0  0  0
   -2.5369   -0.8109   -1.3528 H   0  0  0  0  0  0  0  0  0  0  0  0
   -3.2928    0.0912   -0.0003 H   0  0  0  0  0  0  0  0  0  0  0  0
    1.4395   -3.0480    0.1182 H   0  0  0  0  0  0  0  0  0  0  0  0
    3.1788    1.2323    0.3308 H   0  0  0  0  0  0  0  0  0  0  0  0
    1.1472    2.5408   -1.3637 H   0  0  0  0  0  0  0  0  0  0  0  0
   -2.3111    2.2084   -0.5203 H   0  0  0  0  0  0  0  0  0  0  0  0
   -2.4139   -2.5718    0.1669 H   0  0  0  0  0  0  0  0  0  0  0  0
  1  2  1  0  0  0  0
  2  3  1  0  0  0  0
  2  4  1  0  0  0  0
  4  5  1  0  0  0  0
  4  6  1  0  0  0  0
  6  7  1  0  0  0  0
  6  8  1  0  0  0  0
  8  9  1  0  0  0  0
  8 10  1  0  0  0  0
 10 11  1  0  0  0  0
  2 12  1  0  0  0  0
 10 12  1  0  0  0  0
 10 13  1  0  0  0  0
  8 14  1  0  0  0  0
  6 15  1  0  0  0  0
  4 16  1  0  0  0  0
  1 17  1  0  0  0  0
  1 18  1  0  0  0  0
  1 19  1  0  0  0  0
 13 20  1  0  0  0  0
 14 21  1  0  0  0  0
 15 22  1  0  0  0  0
 16 23  1  0  0  0  0
 17 24  1  0  0  0  0
M  END
