 xtb: 6.7.1 (edcfbbe)
          04062518003D

 24 24  0     0  0            999 V2000
   -2.3301   -0.9721   -0.3876 C   0  0  0  0  0  0  0  0  0  0  0  0
   -0.9656   -0.5351    0.1653 C   0  0  0  0  0  0  0  0  0  0  0  0
   -0.9135   -0.7673    1.2426 H   0  0  0  0  0  0  0  0  0  0  0  0
   -0.7335    0.9861   -0.0047 C   0  0  0  0  0  0  0  0  0  0  0  0
   -1.3920    1.3762   -0.7907 H   0  0  0  0  0  0  0  0  0  0  0  0
    0.7228    1.2536   -0.4516 C   0  0  0  0  0  0  0  0  0  0  0  0
    0.9536    2.3009   -0.2278 H   0  0  0  0  0  0  0  0  0  0  0  0
    1.6746    0.3518    0.3473 C   0  0  0  0  0  0  0  0  0  0  0  0
    2.7006    0.4852   -0.0155 H   0  0  0  0  0  0  0  0  0  0  0  0
    1.3080   -1.1352    0.0942 C   0  0  0  0  0  0  0  0  0  0  0  0
    1.2992   -1.6512    1.0766 H   0  0  0  0  0  0  0  0  0  0  0  0
    0.0310   -1.2797   -0.5075 O   0  0  0  0  0  0  0  0  0  0  0  0
    2.2386   -1.6811   -0.7636 O   0  0  0  0  0  0  0  0  0  0  0  0
    1.6691    0.6570    1.7176 O   0  0  0  0  0  0  0  0  0  0  0  0
    0.8841    1.1083   -1.8352 O   0  0  0  0  0  0  0  0  0  0  0  0
   -0.9437    1.6708    1.2098 O   0  0  0  0  0  0  0  0  0  0  0  0
   -3.3858   -0.3491    0.2990 O   0  0  0  0  0  0  0  0  0  0  0  0
   -2.3977   -2.0631   -0.3454 H   0  0  0  0  0  0  0  0  0  0  0  0
   -2.4060   -0.6622   -1.4324 H   0  0  0  0  0  0  0  0  0  0  0  0
    2.0002   -2.5978   -0.9752 H   0  0  0  0  0  0  0  0  0  0  0  0
    0.8208    1.0729    1.9528 H   0  0  0  0  0  0  0  0  0  0  0  0
    0.8167    0.1688   -2.0667 H   0  0  0  0  0  0  0  0  0  0  0  0
   -1.8942    1.7572    1.3725 H   0  0  0  0  0  0  0  0  0  0  0  0
   -3.5594   -0.8175    1.1275 H   0  0  0  0  0  0  0  0  0  0  0  0
  1  2  1  0  0  0  0
  2  3  1  0  0  0  0
  2  4  1  0  0  0  0
  4  5  1  0  0  0  0
  4  6  1  0  0  0  0
  6  7  1  0  0  0  0
  6  8  1  0  0  0  0
  8  9  1  0  0  0  0
  8 10  1  0  0  0  0
 10 11  1  0  0  0  0
  2 12  1  0  0  0  0
 10 12  1  0  0  0  0
 10 13  1  0  0  0  0
  8 14  1  0  0  0  0
  6 15  1  0  0  0  0
  4 16  1  0  0  0  0
  1 17  1  0  0  0  0
  1 18  1  0  0  0  0
  1 19  1  0  0  0  0
 13 20  1  0  0  0  0
 14 21  1  0  0  0  0
 15 22  1  0  0  0  0
 16 23  1  0  0  0  0
 17 24  1  0  0  0  0
M  END
