24
 xtb: 6.7.1 (edcfbbe)
C            3.29967421367779        1.07837242912992       -0.00480264506352
N            2.27455127457879        0.04000013302204        0.00316129568217
C            2.48195208509124       -1.29247600293690       -0.00018287584928
N            1.35228119808953       -2.00999513170783        0.00183958480678
C            0.37776429357940       -1.06656308293518        0.00617497463445
C            0.90122290246736        0.21332871176759        0.00566196059159
C            0.10119318473543        1.38209011563992        0.00379425470832
O            0.50374270017060        2.55225096793054        0.00183333408990
N           -1.27752027185166        1.06590111822611        0.00258409333060
C           -1.84074645983934       -0.21589077276054       -0.00669610823162
O           -3.06577884000744       -0.36003474132613       -0.02533106002478
N           -0.97310987654624       -1.29162018477303        0.01152792991905
C           -1.48647453760733       -2.66411158221712        0.00063463651643
C           -2.24731330788469        2.16859637938446       -0.00133146992132
H            3.22222707241445        1.67959263716871       -0.91337893195034
H            3.18891933421924        1.72363234179566        0.86913318644205
H            4.27422285860488        0.58970790445107        0.02574655156614
H            3.47941540428531       -1.71131656064133       -0.00338008433516
H           -1.24409555115388       -3.15070111571627       -0.94812824808821
H           -2.56617783989810       -2.63259496686596        0.12786348367747
H           -1.03857932441832       -3.22709271187226        0.82208525823415
H           -2.89061498128221        2.10509092191799        0.87926356731790
H           -2.86595638977317        2.12303575817981       -0.90065647270542
H           -1.69686574796593        3.10638262403403        0.01576153251546
