 xtb: 6.7.1 (edcfbbe)
          04032522023D

 16 16  0     0  0            999 V2000
   -1.5053    0.7465    0.0890 C   0  0  0  0  0  0  0  0  0  0  0  0
   -1.3881   -0.6802   -0.4397 C   0  0  0  0  0  0  0  0  0  0  0  0
   -0.1266   -1.2087    0.2453 C   0  0  0  0  0  0  0  0  0  0  0  0
    0.7890    0.0156    0.4471 C   0  0  0  0  0  0  0  0  0  0  0  0
   -0.0616    1.2409    0.0526 C   0  0  0  0  0  0  0  0  0  0  0  0
    1.9420   -0.1375   -0.3601 O   0  0  0  0  0  0  0  0  0  0  0  0
   -1.8706    0.7336    1.1170 H   0  0  0  0  0  0  0  0  0  0  0  0
   -2.1708    1.3659   -0.5096 H   0  0  0  0  0  0  0  0  0  0  0  0
   -2.2627   -1.2878   -0.2157 H   0  0  0  0  0  0  0  0  0  0  0  0
   -1.2455   -0.6603   -1.5207 H   0  0  0  0  0  0  0  0  0  0  0  0
   -0.3730   -1.6508    1.2097 H   0  0  0  0  0  0  0  0  0  0  0  0
    0.3941   -1.9534   -0.3541 H   0  0  0  0  0  0  0  0  0  0  0  0
    1.0999    0.0849    1.5000 H   0  0  0  0  0  0  0  0  0  0  0  0
    0.1084    2.0922    0.7096 H   0  0  0  0  0  0  0  0  0  0  0  0
    0.2024    1.5246   -0.9677 H   0  0  0  0  0  0  0  0  0  0  0  0
    2.5226    0.6252   -0.2395 H   0  0  0  0  0  0  0  0  0  0  0  0
  1  2  1  0  0  0  0
  2  3  1  0  0  0  0
  3  4  1  0  0  0  0
  1  5  1  0  0  0  0
  4  5  1  0  0  0  0
  4  6  1  0  0  0  0
  1  7  1  0  0  0  0
  1  8  1  0  0  0  0
  2  9  1  0  0  0  0
  2 10  1  0  0  0  0
  3 11  1  0  0  0  0
  3 12  1  0  0  0  0
  4 13  1  0  0  0  0
  5 14  1  0  0  0  0
  5 15  1  0  0  0  0
  6 16  1  0  0  0  0
M  END
