 xtb: 6.7.1 (edcfbbe)
          04032521123D

 12 11  0     0  0            999 V2000
    1.6546   -1.2406    0.0111 C   0  0  0  0  0  0  0  0  0  0  0  0
    0.9509    0.0224   -0.4734 C   0  0  0  0  0  0  0  0  0  0  0  0
    0.9403    0.0765   -1.5678 H   0  0  0  0  0  0  0  0  0  0  0  0
   -0.5225   -0.0095   -0.0313 C   0  0  0  0  0  0  0  0  0  0  0  0
   -1.1791   -1.0854   -0.5010 F   0  0  0  0  0  0  0  0  0  0  0  0
   -0.6574   -0.0410    1.3076 F   0  0  0  0  0  0  0  0  0  0  0  0
   -1.2137    1.0644   -0.4502 F   0  0  0  0  0  0  0  0  0  0  0  0
    1.5433    1.2094   -0.0350 O   0  0  0  0  0  0  0  0  0  0  0  0
    1.6005   -1.3116    1.0953 H   0  0  0  0  0  0  0  0  0  0  0  0
    2.6953   -1.2039   -0.2951 H   0  0  0  0  0  0  0  0  0  0  0  0
    1.1863   -2.1185   -0.4236 H   0  0  0  0  0  0  0  0  0  0  0  0
    1.7509    1.1577    0.9117 H   0  0  0  0  0  0  0  0  0  0  0  0
  1  2  1  0  0  0  0
  2  3  1  0  0  0  0
  2  4  1  0  0  0  0
  4  5  1  0  0  0  0
  4  6  1  0  0  0  0
  4  7  1  0  0  0  0
  2  8  1  0  0  0  0
  1  9  1  0  0  0  0
  1 10  1  0  0  0  0
  1 11  1  0  0  0  0
  8 12  1  0  0  0  0
M  END
