19
CONF1
C -3.8062518653 -0.7187831997 0.0011201090
O -2.3821481314 -0.8090818600 0.0008516766
C -1.7015979125 0.3407766515 -0.0003249782
O -2.2581873670 1.4267947665 -0.0014529965
C -0.2447759573 0.1536217521 -0.0003852443
C 0.5771976989 1.2810410087 0.0004940809
C 1.9483777245 1.1492431039 0.0008017125
C 2.5260336594 -0.1207733134 0.0001469751
C 1.7049936137 -1.2518568436 -0.0009044982
C 0.3359645757 -1.1169179503 -0.0011248346
O 3.8587285470 -0.3100167951 0.0004689452
H -4.1637153936 -1.7435425271 -0.0135463233
H -4.1467992096 -0.1709076600 -0.8787604853
H -4.1477646177 -0.1964567065 0.8960346077
H 0.1131735719 2.2556982905 0.0010051204
H 2.5737361063 2.0291885657 0.0015795876
H 2.1710634646 -2.2238760075 -0.0014923450
H -0.2980309456 -1.9885641031 -0.0018872711
H 4.3376707426 0.5342955115 0.0012738672
19
CONF2
C -3.7682080245 0.9161059752 -0.0275293056
O -2.3405139451 0.9123043926 -0.0295946630
C -1.7168480790 -0.2677919879 0.0125459650
O -2.3174757900 -1.3296788076 0.0458612557
C -0.2526033441 -0.1453451246 0.0060644159
C 0.3845917186 1.0975704807 -0.0191275429
C 1.7583216030 1.1712051695 -0.0233358405
C 2.5278380474 0.0047375667 -0.0029898859
C 1.8939251466 -1.2378450730 0.0221130062
C 0.5181958416 -1.3081539437 0.0271266669
O 3.8677132834 0.1337355550 -0.0083415736
H -4.0686687452 1.8161781197 -0.5564460820
H -4.1281189866 0.9370525674 1.0017186483
H -4.1453605221 0.0214479663 -0.5249619567
H -0.2097513081 1.9965877988 -0.0346665720
H 2.2672249842 2.1213334429 -0.0421633996
H 2.4794893485 -2.1446360124 0.0377885241
H 0.0112977434 -2.2609888923 0.0467220469
H 4.3080226225 -0.7311266833 0.0073705918
19
CONF3
C -3.8113850255 -0.7229533699 0.0107761506
O -2.3847978954 -0.7869774016 0.0119832516
C -1.7006190910 0.3600904393 -0.0061946576
O -2.2436261815 1.4527946486 -0.0166447216
C -0.2448457300 0.1597550461 -0.0027867188
C 0.5882546058 1.2812279091 0.0072319532
C 1.9557149405 1.1365834158 0.0100007706
C 2.5238945830 -0.1399590466 0.0013102449
C 1.6945757123 -1.2622008273 -0.0094485208
C 0.3244534931 -1.1138939027 -0.0111123848
O 3.8667060086 -0.2327478858 0.0034523391
H -4.1426460794 0.2284427079 0.4291105441
H -4.1565170007 -1.5579276852 0.6146629124
H -4.1716512872 -0.8167235368 -1.0139674393
H 0.1334229892 2.2599251565 0.0133096814
H 2.6101853657 1.9930056459 0.0185042380
H 2.1268295652 -2.2514688001 -0.0167404834
H -0.3171703998 -1.9801412664 -0.0196497415
H 4.1591181580 -1.1585044744 -0.0033765744
