 xtb: 6.7.1 (edcfbbe)
          04052500043D

 17 18  0     0  0            999 V2000
   -2.8990    1.4713   -0.0033 C   0  0  0  0  0  0  0  0  0  0  0  0
   -1.7995    0.4597    0.0070 C   0  0  0  0  0  0  0  0  0  0  0  0
   -2.0971   -0.9028    0.0668 C   0  0  0  0  0  0  0  0  0  0  0  0
   -1.0967   -1.8619    0.0806 C   0  0  0  0  0  0  0  0  0  0  0  0
    0.2309   -1.4824    0.0347 C   0  0  0  0  0  0  0  0  0  0  0  0
    0.5339   -0.1240   -0.0248 C   0  0  0  0  0  0  0  0  0  0  0  0
   -0.4694    0.8434   -0.0387 C   0  0  0  0  0  0  0  0  0  0  0  0
    1.8928    0.2857   -0.0726 N   0  0  0  0  0  0  0  0  0  0  0  0
    2.1451    1.4817   -0.1177 O   0  0  0  0  0  0  0  0  0  0  0  0
    2.7647   -0.5724   -0.0671 O   0  0  0  0  0  0  0  0  0  0  0  0
   -3.5807    1.2767   -0.8282 H   0  0  0  0  0  0  0  0  0  0  0  0
   -3.4699    1.4101    0.9210 H   0  0  0  0  0  0  0  0  0  0  0  0
   -2.5018    2.4766   -0.1032 H   0  0  0  0  0  0  0  0  0  0  0  0
   -3.1307   -1.2110    0.1027 H   0  0  0  0  0  0  0  0  0  0  0  0
   -1.3522   -2.9082    0.1271 H   0  0  0  0  0  0  0  0  0  0  0  0
    1.0322   -2.2038    0.0437 H   0  0  0  0  0  0  0  0  0  0  0  0
   -0.1875    1.8842   -0.0858 H   0  0  0  0  0  0  0  0  0  0  0  0
  1  2  1  0  0  0  0
  2  3  4  0  0  0  0
  3  4  4  0  0  0  0
  4  5  4  0  0  0  0
  5  6  4  0  0  0  0
  2  7  4  0  0  0  0
  6  7  4  0  0  0  0
  6  8  1  0  0  0  0
  8  9  4  0  0  0  0
  8 10  4  0  0  0  0
  9 10  1  0  0  0  0
  1 11  1  0  0  0  0
  1 12  1  0  0  0  0
  1 13  1  0  0  0  0
  3 14  1  0  0  0  0
  4 15  1  0  0  0  0
  5 16  1  0  0  0  0
  7 17  1  0  0  0  0
M  END
