 xtb: 6.7.1 (edcfbbe)
          04032521503D

 24 24  0     0  0            999 V2000
   -2.9207   -0.0000   -0.0499 C   0  0  0  0  0  0  0  0  0  0  0  0
   -1.4449   -0.0001    0.3393 C   0  0  0  0  0  0  0  0  0  0  0  0
   -0.7384   -1.2477   -0.1921 C   0  0  0  0  0  0  0  0  0  0  0  0
    0.7383   -1.2477    0.1924 C   0  0  0  0  0  0  0  0  0  0  0  0
    1.4448   -0.0000   -0.3392 C   0  0  0  0  0  0  0  0  0  0  0  0
    0.7385    1.2478    0.1921 C   0  0  0  0  0  0  0  0  0  0  0  0
   -0.7384    1.2478   -0.1918 C   0  0  0  0  0  0  0  0  0  0  0  0
    2.9208   -0.0001    0.0493 C   0  0  0  0  0  0  0  0  0  0  0  0
   -3.4199    0.8823    0.3439 H   0  0  0  0  0  0  0  0  0  0  0  0
   -3.0269    0.0003   -1.1328 H   0  0  0  0  0  0  0  0  0  0  0  0
   -3.4198   -0.8827    0.3433 H   0  0  0  0  0  0  0  0  0  0  0  0
   -1.3720   -0.0002    1.4331 H   0  0  0  0  0  0  0  0  0  0  0  0
   -1.2225   -2.1429    0.2046 H   0  0  0  0  0  0  0  0  0  0  0  0
   -0.8296   -1.2740   -1.2808 H   0  0  0  0  0  0  0  0  0  0  0  0
    0.8296   -1.2736    1.2811 H   0  0  0  0  0  0  0  0  0  0  0  0
    1.2225   -2.1429   -0.2041 H   0  0  0  0  0  0  0  0  0  0  0  0
    1.3714   -0.0002   -1.4331 H   0  0  0  0  0  0  0  0  0  0  0  0
    0.8302    1.2743    1.2808 H   0  0  0  0  0  0  0  0  0  0  0  0
    1.2224    2.1428   -0.2051 H   0  0  0  0  0  0  0  0  0  0  0  0
   -1.2224    2.1428    0.2055 H   0  0  0  0  0  0  0  0  0  0  0  0
   -0.8301    1.2746   -1.2804 H   0  0  0  0  0  0  0  0  0  0  0  0
    3.0275   -0.0015    1.1320 H   0  0  0  0  0  0  0  0  0  0  0  0
    3.4194    0.8831   -0.3433 H   0  0  0  0  0  0  0  0  0  0  0  0
    3.4200   -0.8818   -0.3457 H   0  0  0  0  0  0  0  0  0  0  0  0
  1  2  1  0  0  0  0
  2  3  1  0  0  0  0
  3  4  1  0  0  0  0
  4  5  1  0  0  0  0
  5  6  1  0  0  0  0
  2  7  1  0  0  0  0
  6  7  1  0  0  0  0
  5  8  1  0  0  0  0
  1  9  1  0  0  0  0
  1 10  1  0  0  0  0
  1 11  1  0  0  0  0
  2 12  1  0  0  0  0
  3 13  1  0  0  0  0
  3 14  1  0  0  0  0
  4 15  1  0  0  0  0
  4 16  1  0  0  0  0
  5 17  1  0  0  0  0
  6 18  1  0  0  0  0
  6 19  1  0  0  0  0
  7 20  1  0  0  0  0
  7 21  1  0  0  0  0
  8 22  1  0  0  0  0
  8 23  1  0  0  0  0
  8 24  1  0  0  0  0
M  END
