11
 xtb: 6.7.1 (edcfbbe)
C           -2.80347430534814       -0.12240092257485       -0.50558365646632
O           -1.36094451561800       -0.29284826950298       -0.67417568452117
C           -0.61979871244180        0.09659365631942        0.34606661001202
O           -0.98706516520245        0.56727157988214        1.39566159212080
C            0.88064095657572       -0.09044110517244        0.00920387794151
F            1.29190444412113        0.91386404501343       -0.79545986460787
F            1.61602451514876       -0.05789095152712        1.12718377472257
F            1.11973420212586       -1.25322688732156       -0.62162243197958
H           -3.13295765061408       -0.67241247085936        0.37751056384127
H           -3.24266386821280       -0.53610831236871       -1.41077213927044
H           -3.03131656354447        0.94078843115885       -0.40909238264679
