 xtb: 6.7.1 (edcfbbe)
          04062518003D

 24 24  0     0  0            999 V2000
   -2.2368   -0.9716   -0.3859 C   0  0  0  0  0  0  0  0  0  0  0  0
   -1.1882   -0.1850    0.4248 C   0  0  0  0  0  0  0  0  0  0  0  0
   -1.6579    0.2367    1.3227 H   0  0  0  0  0  0  0  0  0  0  0  0
   -0.6006    0.9744   -0.3981 C   0  0  0  0  0  0  0  0  0  0  0  0
   -0.4738    0.6698   -1.4460 H   0  0  0  0  0  0  0  0  0  0  0  0
    0.7871    1.3316    0.1550 C   0  0  0  0  0  0  0  0  0  0  0  0
    0.7058    1.5367    1.2331 H   0  0  0  0  0  0  0  0  0  0  0  0
    1.7388    0.1479   -0.0364 C   0  0  0  0  0  0  0  0  0  0  0  0
    2.1000    0.1799   -1.0713 H   0  0  0  0  0  0  0  0  0  0  0  0
    0.9820   -1.1895    0.1609 C   0  0  0  0  0  0  0  0  0  0  0  0
    1.6105   -1.8549    0.7714 H   0  0  0  0  0  0  0  0  0  0  0  0
   -0.1782   -1.0524    0.9353 O   0  0  0  0  0  0  0  0  0  0  0  0
    0.7300   -1.7340   -1.0974 O   0  0  0  0  0  0  0  0  0  0  0  0
    2.7915    0.2786    0.8840 O   0  0  0  0  0  0  0  0  0  0  0  0
    1.3247    2.4399   -0.5164 O   0  0  0  0  0  0  0  0  0  0  0  0
   -1.3923    2.1348   -0.3043 O   0  0  0  0  0  0  0  0  0  0  0  0
   -2.6888   -2.1276    0.2705 O   0  0  0  0  0  0  0  0  0  0  0  0
   -1.7955   -1.3168   -1.3233 H   0  0  0  0  0  0  0  0  0  0  0  0
   -3.0780   -0.3026   -0.6119 H   0  0  0  0  0  0  0  0  0  0  0  0
    0.3759   -2.6323   -1.0020 H   0  0  0  0  0  0  0  0  0  0  0  0
    3.5876   -0.1565    0.5485 H   0  0  0  0  0  0  0  0  0  0  0  0
    0.6709    3.1562   -0.4786 H   0  0  0  0  0  0  0  0  0  0  0  0
   -2.1725    2.0586   -0.8694 H   0  0  0  0  0  0  0  0  0  0  0  0
   -3.0194   -1.8947    1.1493 H   0  0  0  0  0  0  0  0  0  0  0  0
  1  2  1  0  0  0  0
  2  3  1  0  0  0  0
  2  4  1  0  0  0  0
  4  5  1  0  0  0  0
  4  6  1  0  0  0  0
  6  7  1  0  0  0  0
  6  8  1  0  0  0  0
  8  9  1  0  0  0  0
  8 10  1  0  0  0  0
 10 11  1  0  0  0  0
  2 12  1  0  0  0  0
 10 12  1  0  0  0  0
 10 13  1  0  0  0  0
  8 14  1  0  0  0  0
  6 15  1  0  0  0  0
  4 16  1  0  0  0  0
  1 17  1  0  0  0  0
  1 18  1  0  0  0  0
  1 19  1  0  0  0  0
 13 20  1  0  0  0  0
 14 21  1  0  0  0  0
 15 22  1  0  0  0  0
 16 23  1  0  0  0  0
 17 24  1  0  0  0  0
M  END
