 xtb: 6.7.1 (edcfbbe)
          04062518003D

 24 24  0     0  0            999 V2000
   -2.3505   -0.8970   -0.4425 C   0  0  0  0  0  0  0  0  0  0  0  0
   -0.9862   -0.4743    0.1210 C   0  0  0  0  0  0  0  0  0  0  0  0
   -0.9774   -0.7101    1.1977 H   0  0  0  0  0  0  0  0  0  0  0  0
   -0.7034    1.0367   -0.0338 C   0  0  0  0  0  0  0  0  0  0  0  0
   -1.3334    1.4545   -0.8320 H   0  0  0  0  0  0  0  0  0  0  0  0
    0.7715    1.2595   -0.4566 C   0  0  0  0  0  0  0  0  0  0  0  0
    1.0508    2.2968   -0.2377 H   0  0  0  0  0  0  0  0  0  0  0  0
    1.6823    0.3287    0.3607 C   0  0  0  0  0  0  0  0  0  0  0  0
    2.7176    0.4275    0.0166 H   0  0  0  0  0  0  0  0  0  0  0  0
    1.2678   -1.1452    0.1102 C   0  0  0  0  0  0  0  0  0  0  0  0
    1.2047   -1.6543    1.0940 H   0  0  0  0  0  0  0  0  0  0  0  0
    0.0064   -1.2395   -0.5331 O   0  0  0  0  0  0  0  0  0  0  0  0
    2.2036   -1.7333   -0.7132 O   0  0  0  0  0  0  0  0  0  0  0  0
    1.6768    0.6576    1.7242 O   0  0  0  0  0  0  0  0  0  0  0  0
    0.9420    1.1070   -1.8392 O   0  0  0  0  0  0  0  0  0  0  0  0
   -0.9875    1.6441    1.2074 O   0  0  0  0  0  0  0  0  0  0  0  0
   -3.4120   -0.5666    0.4122 O   0  0  0  0  0  0  0  0  0  0  0  0
   -2.3604   -1.9849   -0.5346 H   0  0  0  0  0  0  0  0  0  0  0  0
   -2.4910   -0.4607   -1.4396 H   0  0  0  0  0  0  0  0  0  0  0  0
    1.9373   -2.6420   -0.9259 H   0  0  0  0  0  0  0  0  0  0  0  0
    0.7717    0.8890    2.0000 H   0  0  0  0  0  0  0  0  0  0  0  0
    0.8456    0.1703   -2.0710 H   0  0  0  0  0  0  0  0  0  0  0  0
   -0.9660    2.6084    1.1202 H   0  0  0  0  0  0  0  0  0  0  0  0
   -3.4174    0.3869    0.5772 H   0  0  0  0  0  0  0  0  0  0  0  0
  1  2  1  0  0  0  0
  2  3  1  0  0  0  0
  2  4  1  0  0  0  0
  4  5  1  0  0  0  0
  4  6  1  0  0  0  0
  6  7  1  0  0  0  0
  6  8  1  0  0  0  0
  8  9  1  0  0  0  0
  8 10  1  0  0  0  0
 10 11  1  0  0  0  0
  2 12  1  0  0  0  0
 10 12  1  0  0  0  0
 10 13  1  0  0  0  0
  8 14  1  0  0  0  0
  6 15  1  0  0  0  0
  4 16  1  0  0  0  0
  1 17  1  0  0  0  0
  1 18  1  0  0  0  0
  1 19  1  0  0  0  0
 13 20  1  0  0  0  0
 14 21  1  0  0  0  0
 15 22  1  0  0  0  0
 16 23  1  0  0  0  0
 17 24  1  0  0  0  0
M  END
