26
 xtb: 6.7.1 (edcfbbe)
C           -4.36503088321786       -1.25612302246816        0.40582311277040
N           -3.30901811320809       -0.77959360660470       -0.47845481886564
C           -2.22408884429429       -0.17270272319309        0.01332934859159
O           -1.97977523857356        0.01968792049130        1.19893463145099
O           -1.38371292689713        0.23696408058202       -1.00994794827108
C           -0.16912968030212        0.81279313778038       -0.61533001543673
C           -0.04369322603186        2.17575150541407       -0.65923551520039
C            1.19519104838543        2.76869652448836       -0.33728868991875
C            2.26845749318856        1.98973411258018        0.02236525011637
C            2.15239124921073        0.57895549033576        0.07418436740401
C            0.90252609679022       -0.03837341612778       -0.25457921295375
C            0.78874074373799       -1.44835281412073       -0.20792461411843
C            1.86877424534230       -2.21826120164321        0.15429958736398
C            3.10292429039839       -1.61601011658900        0.48187428247010
C            3.24118238005275       -0.24923377735658        0.44147940652857
H           -3.99422225335549       -2.03550009935975        1.07838685235771
H           -5.16140660311935       -1.67417531841915       -0.21039899994420
H           -4.77517735176433       -0.43739020063351        1.00447955998894
H           -3.40606273275545       -0.87071393481585       -1.47792781746475
H           -0.89672810255418        2.78337532252108       -0.94190003544667
H            1.28999431199989        3.84880909704604       -0.37490221922303
H            3.22286013789182        2.44367073983427        0.27146048638214
H           -0.15566464631247       -1.91836811059040       -0.46208434997271
H            1.77527077277654       -3.29897974503573        0.18778839501033
H            3.94463244545671       -2.23980686323856        0.76512864694002
H            4.18889507939597        0.21937500144983        0.69066230909817
