 xtb: 6.7.1 (edcfbbe)
          04032522023D

 16 16  0     0  0            999 V2000
   -1.4753    0.7717   -0.0024 C   0  0  0  0  0  0  0  0  0  0  0  0
   -1.3267   -0.6613   -0.5041 C   0  0  0  0  0  0  0  0  0  0  0  0
   -0.1807   -1.1994    0.3495 C   0  0  0  0  0  0  0  0  0  0  0  0
    0.7989   -0.0157    0.4833 C   0  0  0  0  0  0  0  0  0  0  0  0
   -0.0293    1.2432    0.1593 C   0  0  0  0  0  0  0  0  0  0  0  0
    1.8717   -0.0772   -0.4398 O   0  0  0  0  0  0  0  0  0  0  0  0
   -1.9799    0.7731    0.9649 H   0  0  0  0  0  0  0  0  0  0  0  0
   -2.0379    1.4031   -0.6873 H   0  0  0  0  0  0  0  0  0  0  0  0
   -2.2386   -1.2456   -0.3956 H   0  0  0  0  0  0  0  0  0  0  0  0
   -1.0337   -0.6562   -1.5547 H   0  0  0  0  0  0  0  0  0  0  0  0
   -0.5502   -1.4773    1.3369 H   0  0  0  0  0  0  0  0  0  0  0  0
    0.3006   -2.0669   -0.0994 H   0  0  0  0  0  0  0  0  0  0  0  0
    1.2107    0.0314    1.5019 H   0  0  0  0  0  0  0  0  0  0  0  0
    0.0774    2.0085    0.9250 H   0  0  0  0  0  0  0  0  0  0  0  0
    0.3510    1.6430   -0.7814 H   0  0  0  0  0  0  0  0  0  0  0  0
    2.4153   -0.8537   -0.2527 H   0  0  0  0  0  0  0  0  0  0  0  0
  1  2  1  0  0  0  0
  2  3  1  0  0  0  0
  3  4  1  0  0  0  0
  1  5  1  0  0  0  0
  4  5  1  0  0  0  0
  4  6  1  0  0  0  0
  1  7  1  0  0  0  0
  1  8  1  0  0  0  0
  2  9  1  0  0  0  0
  2 10  1  0  0  0  0
  3 11  1  0  0  0  0
  3 12  1  0  0  0  0
  4 13  1  0  0  0  0
  5 14  1  0  0  0  0
  5 15  1  0  0  0  0
  6 16  1  0  0  0  0
M  END
