24
 xtb: 6.7.1 (edcfbbe)
C           -2.42107003654740       -1.13097703970855       -0.32356590948780
C           -1.10522231892066       -0.60563038153097        0.24347664407781
H           -1.14130987510615       -0.60862645263045        1.34598256992086
C           -0.77099793617075        0.81246533886676       -0.24226406796786
H           -0.82626705395485        0.82968772819900       -1.34324520472345
C            0.63324084363593        1.19829150675833        0.18793861644287
H            0.64923540779131        1.29453674768169        1.28552717536312
C            1.63505517233802        0.12573321313623       -0.21709744616708
H            1.69091085613901        0.06923044551756       -1.31627912758263
C            1.18863678919552       -1.23719591429633        0.30915484991064
H            1.15600855313742       -1.24333587224747        1.40858561789785
O           -0.11001404096705       -1.53271998713946       -0.21737621077984
O            2.05757414431179       -2.27036618232088       -0.07300493323817
O            2.89911093632003        0.50037597355213        0.33627729974721
O            0.95070099298767        2.45768055959565       -0.41744094151256
O           -1.67173401324664        1.77470931147237        0.31857548544892
O           -3.54022782006846       -0.31275443618628        0.05070211719936
H           -2.56813944445634       -2.16640244100727        0.00656297812981
H           -2.37576524756954       -1.11367954036298       -1.41714395247392
H            2.22432148284106       -2.19171001809653       -1.02493273906483
H            3.56544051222322       -0.09324346615521       -0.03444925887841
H            1.81454660547606        2.72767644039162       -0.07839653282515
H           -2.56525296059841        1.41465658744649        0.18620427523298
H           -3.70439794125519       -0.45518968125098        0.99291464664633
