 xtb: 6.7.1 (edcfbbe)
          04052512103D

 26 25  0     0  0            999 V2000
   -2.4324    1.1632    0.0611 C   0  0  0  0  0  0  0  0  0  0  0  0
   -1.4288    0.0378   -0.1917 C   0  0  0  0  0  0  0  0  0  0  0  0
   -2.1000   -1.3116    0.0624 C   0  0  0  0  0  0  0  0  0  0  0  0
   -0.1798    0.2198    0.6913 C   0  0  0  0  0  0  0  0  0  0  0  0
    1.1855    0.0212    0.0050 C   0  0  0  0  0  0  0  0  0  0  0  0
    1.4207    1.1059   -1.0498 C   0  0  0  0  0  0  0  0  0  0  0  0
    2.2729    0.1433    1.0795 C   0  0  0  0  0  0  0  0  0  0  0  0
    1.2931   -1.3599   -0.6441 C   0  0  0  0  0  0  0  0  0  0  0  0
   -3.3192    1.0294   -0.5549 H   0  0  0  0  0  0  0  0  0  0  0  0
   -2.7393    1.1696    1.1051 H   0  0  0  0  0  0  0  0  0  0  0  0
   -1.9939    2.1297   -0.1767 H   0  0  0  0  0  0  0  0  0  0  0  0
   -1.1406    0.0812   -1.2458 H   0  0  0  0  0  0  0  0  0  0  0  0
   -2.9533   -1.4426   -0.6001 H   0  0  0  0  0  0  0  0  0  0  0  0
   -1.4071   -2.1307   -0.1074 H   0  0  0  0  0  0  0  0  0  0  0  0
   -2.4551   -1.3679    1.0897 H   0  0  0  0  0  0  0  0  0  0  0  0
   -0.1871    1.2295    1.1080 H   0  0  0  0  0  0  0  0  0  0  0  0
   -0.2437   -0.4721    1.5341 H   0  0  0  0  0  0  0  0  0  0  0  0
    2.4057    0.9888   -1.4962 H   0  0  0  0  0  0  0  0  0  0  0  0
    1.3646    2.0939   -0.5984 H   0  0  0  0  0  0  0  0  0  0  0  0
    0.6823    1.0517   -1.8453 H   0  0  0  0  0  0  0  0  0  0  0  0
    3.2602    0.0358    0.6360 H   0  0  0  0  0  0  0  0  0  0  0  0
    2.1528   -0.6286    1.8365 H   0  0  0  0  0  0  0  0  0  0  0  0
    2.2218    1.1134    1.5688 H   0  0  0  0  0  0  0  0  0  0  0  0
    1.1218   -2.1415    0.0927 H   0  0  0  0  0  0  0  0  0  0  0  0
    2.2877   -1.4992   -1.0627 H   0  0  0  0  0  0  0  0  0  0  0  0
    0.5705   -1.4742   -1.4475 H   0  0  0  0  0  0  0  0  0  0  0  0
  1  2  1  0  0  0  0
  2  3  1  0  0  0  0
  2  4  1  0  0  0  0
  4  5  1  0  0  0  0
  5  6  1  0  0  0  0
  5  7  1  0  0  0  0
  5  8  1  0  0  0  0
  1  9  1  0  0  0  0
  1 10  1  0  0  0  0
  1 11  1  0  0  0  0
  2 12  1  0  0  0  0
  3 13  1  0  0  0  0
  3 14  1  0  0  0  0
  3 15  1  0  0  0  0
  4 16  1  0  0  0  0
  4 17  1  0  0  0  0
  6 18  1  0  0  0  0
  6 19  1  0  0  0  0
  6 20  1  0  0  0  0
  7 21  1  0  0  0  0
  7 22  1  0  0  0  0
  7 23  1  0  0  0  0
  8 24  1  0  0  0  0
  8 25  1  0  0  0  0
  8 26  1  0  0  0  0
M  END
