 xtb: 6.7.1 (edcfbbe)
          04062518003D

 24 24  0     0  0            999 V2000
   -2.4871   -1.0622    0.3447 C   0  0  0  0  0  0  0  0  0  0  0  0
   -1.0579   -0.5572    0.5834 C   0  0  0  0  0  0  0  0  0  0  0  0
   -0.8706   -0.5076    1.6674 H   0  0  0  0  0  0  0  0  0  0  0  0
   -0.8175    0.8337   -0.0274 C   0  0  0  0  0  0  0  0  0  0  0  0
   -0.9774    0.7637   -1.1115 H   0  0  0  0  0  0  0  0  0  0  0  0
    0.6356    1.2670    0.2162 C   0  0  0  0  0  0  0  0  0  0  0  0
    0.7896    1.4160    1.2961 H   0  0  0  0  0  0  0  0  0  0  0  0
    1.6039    0.1853   -0.2663 C   0  0  0  0  0  0  0  0  0  0  0  0
    1.5776    0.1742   -1.3664 H   0  0  0  0  0  0  0  0  0  0  0  0
    1.1837   -1.2010    0.2737 C   0  0  0  0  0  0  0  0  0  0  0  0
    1.3649   -1.2089    1.3634 H   0  0  0  0  0  0  0  0  0  0  0  0
   -0.1632   -1.4869    0.0000 O   0  0  0  0  0  0  0  0  0  0  0  0
    1.9613   -2.2097   -0.2659 O   0  0  0  0  0  0  0  0  0  0  0  0
    2.8933    0.4987    0.1939 O   0  0  0  0  0  0  0  0  0  0  0  0
    0.9182    2.4532   -0.4815 O   0  0  0  0  0  0  0  0  0  0  0  0
   -1.6489    1.8147    0.5412 O   0  0  0  0  0  0  0  0  0  0  0  0
   -2.9653   -0.5968   -0.8970 O   0  0  0  0  0  0  0  0  0  0  0  0
   -3.1273   -0.6995    1.1583 H   0  0  0  0  0  0  0  0  0  0  0  0
   -2.4481   -2.1555    0.3730 H   0  0  0  0  0  0  0  0  0  0  0  0
    1.6043   -2.4538   -1.1349 H   0  0  0  0  0  0  0  0  0  0  0  0
    3.4992   -0.2136   -0.0638 H   0  0  0  0  0  0  0  0  0  0  0  0
    0.2841    3.1284   -0.1946 H   0  0  0  0  0  0  0  0  0  0  0  0
   -2.5434    1.7084    0.1871 H   0  0  0  0  0  0  0  0  0  0  0  0
   -3.7589   -1.0932   -1.1403 H   0  0  0  0  0  0  0  0  0  0  0  0
  1  2  1  0  0  0  0
  2  3  1  0  0  0  0
  2  4  1  0  0  0  0
  4  5  1  0  0  0  0
  4  6  1  0  0  0  0
  6  7  1  0  0  0  0
  6  8  1  0  0  0  0
  8  9  1  0  0  0  0
  8 10  1  0  0  0  0
 10 11  1  0  0  0  0
  2 12  1  0  0  0  0
 10 12  1  0  0  0  0
 10 13  1  0  0  0  0
  8 14  1  0  0  0  0
  6 15  1  0  0  0  0
  4 16  1  0  0  0  0
  1 17  1  0  0  0  0
  1 18  1  0  0  0  0
  1 19  1  0  0  0  0
 13 20  1  0  0  0  0
 14 21  1  0  0  0  0
 15 22  1  0  0  0  0
 16 23  1  0  0  0  0
 17 24  1  0  0  0  0
M  END
