 xtb: 6.7.1 (edcfbbe)
          04052516073D

 27 27  0     0  0            999 V2000
   -3.0363    0.7477    0.4646 C   0  0  0  0  0  0  0  0  0  0  0  0
   -1.5715    0.3420    0.6173 C   0  0  0  0  0  0  0  0  0  0  0  0
   -1.3821    0.1486    1.6805 H   0  0  0  0  0  0  0  0  0  0  0  0
   -0.6090    1.4419    0.1265 C   0  0  0  0  0  0  0  0  0  0  0  0
    0.2019    0.9793   -1.0755 C   0  0  0  0  0  0  0  0  0  0  0  0
    1.0537   -0.2507   -0.7240 C   0  0  0  0  0  0  0  0  0  0  0  0
    1.5303   -0.5925   -1.6479 H   0  0  0  0  0  0  0  0  0  0  0  0
    0.1349   -1.3820   -0.2222 C   0  0  0  0  0  0  0  0  0  0  0  0
   -1.3078   -0.9847   -0.0609 C   0  0  0  0  0  0  0  0  0  0  0  0
   -2.2074   -1.7262   -0.4112 O   0  0  0  0  0  0  0  0  0  0  0  0
    2.1633    0.1332    0.2311 C   0  0  0  0  0  0  0  0  0  0  0  0
    2.0515    0.1229    1.5503 C   0  0  0  0  0  0  0  0  0  0  0  0
    3.4295    0.5685   -0.4436 C   0  0  0  0  0  0  0  0  0  0  0  0
   -3.6863   -0.0626    0.7869 H   0  0  0  0  0  0  0  0  0  0  0  0
   -3.2486    1.6307    1.0608 H   0  0  0  0  0  0  0  0  0  0  0  0
   -3.2595    0.9610   -0.5785 H   0  0  0  0  0  0  0  0  0  0  0  0
   -1.1895    2.3233   -0.1468 H   0  0  0  0  0  0  0  0  0  0  0  0
    0.0767    1.7311    0.9228 H   0  0  0  0  0  0  0  0  0  0  0  0
   -0.4746    0.7139   -1.8920 H   0  0  0  0  0  0  0  0  0  0  0  0
    0.8459    1.7904   -1.4173 H   0  0  0  0  0  0  0  0  0  0  0  0
    0.1658   -2.2379   -0.8988 H   0  0  0  0  0  0  0  0  0  0  0  0
    0.4731   -1.7352    0.7538 H   0  0  0  0  0  0  0  0  0  0  0  0
    2.8686    0.4258    2.1829 H   0  0  0  0  0  0  0  0  0  0  0  0
    1.1581   -0.1880    2.0642 H   0  0  0  0  0  0  0  0  0  0  0  0
    4.1473    0.9486    0.2775 H   0  0  0  0  0  0  0  0  0  0  0  0
    3.8772   -0.2735   -0.9701 H   0  0  0  0  0  0  0  0  0  0  0  0
    3.2232    1.3453   -1.1777 H   0  0  0  0  0  0  0  0  0  0  0  0
  1  2  1  0  0  0  0
  2  3  1  0  0  0  0
  2  4  1  0  0  0  0
  4  5  1  0  0  0  0
  5  6  1  0  0  0  0
  6  7  1  0  0  0  0
  6  8  1  0  0  0  0
  2  9  1  0  0  0  0
  8  9  1  0  0  0  0
  9 10  2  0  0  0  0
  6 11  1  0  0  0  0
 11 12  2  0  0  0  0
 11 13  1  0  0  0  0
  1 14  1  0  0  0  0
  1 15  1  0  0  0  0
  1 16  1  0  0  0  0
  4 17  1  0  0  0  0
  4 18  1  0  0  0  0
  5 19  1  0  0  0  0
  5 20  1  0  0  0  0
  8 21  1  0  0  0  0
  8 22  1  0  0  0  0
 12 23  1  0  0  0  0
 12 24  1  0  0  0  0
 13 25  1  0  0  0  0
 13 26  1  0  0  0  0
 13 27  1  0  0  0  0
M  END
