 xtb: 6.7.1 (edcfbbe)
          04052516073D

 27 27  0     0  0            999 V2000
   -3.2827    0.3004   -0.2444 C   0  0  0  0  0  0  0  0  0  0  0  0
   -1.8906    0.3655    0.3956 C   0  0  0  0  0  0  0  0  0  0  0  0
   -2.0150    0.2995    1.4822 H   0  0  0  0  0  0  0  0  0  0  0  0
   -1.1513    1.6532    0.0344 C   0  0  0  0  0  0  0  0  0  0  0  0
    0.3313    1.4879    0.3477 C   0  0  0  0  0  0  0  0  0  0  0  0
    0.9832    0.4620   -0.5997 C   0  0  0  0  0  0  0  0  0  0  0  0
    1.3298    0.9865   -1.4949 H   0  0  0  0  0  0  0  0  0  0  0  0
   -0.0449   -0.5960   -1.0574 C   0  0  0  0  0  0  0  0  0  0  0  0
   -1.1083   -0.8564   -0.0333 C   0  0  0  0  0  0  0  0  0  0  0  0
   -1.3613   -1.9669    0.3974 O   0  0  0  0  0  0  0  0  0  0  0  0
    2.1890   -0.1516    0.0761 C   0  0  0  0  0  0  0  0  0  0  0  0
    2.1063   -1.2057    0.8722 C   0  0  0  0  0  0  0  0  0  0  0  0
    3.4843    0.5543   -0.1866 C   0  0  0  0  0  0  0  0  0  0  0  0
   -3.7784   -0.6275    0.0311 H   0  0  0  0  0  0  0  0  0  0  0  0
   -3.8849    1.1376    0.0970 H   0  0  0  0  0  0  0  0  0  0  0  0
   -3.2058    0.3435   -1.3285 H   0  0  0  0  0  0  0  0  0  0  0  0
   -1.2828    1.8820   -1.0241 H   0  0  0  0  0  0  0  0  0  0  0  0
   -1.5683    2.4815    0.6082 H   0  0  0  0  0  0  0  0  0  0  0  0
    0.8477    2.4440    0.2625 H   0  0  0  0  0  0  0  0  0  0  0  0
    0.4357    1.1418    1.3792 H   0  0  0  0  0  0  0  0  0  0  0  0
   -0.5629   -0.2212   -1.9427 H   0  0  0  0  0  0  0  0  0  0  0  0
    0.4566   -1.5284   -1.3181 H   0  0  0  0  0  0  0  0  0  0  0  0
    2.9746   -1.6112    1.3637 H   0  0  0  0  0  0  0  0  0  0  0  0
    1.1778   -1.7151    1.0677 H   0  0  0  0  0  0  0  0  0  0  0  0
    3.7359    0.4925   -1.2444 H   0  0  0  0  0  0  0  0  0  0  0  0
    3.3972    1.6074    0.0751 H   0  0  0  0  0  0  0  0  0  0  0  0
    4.2919    0.1138    0.3908 H   0  0  0  0  0  0  0  0  0  0  0  0
  1  2  1  0  0  0  0
  2  3  1  0  0  0  0
  2  4  1  0  0  0  0
  4  5  1  0  0  0  0
  5  6  1  0  0  0  0
  6  7  1  0  0  0  0
  6  8  1  0  0  0  0
  2  9  1  0  0  0  0
  8  9  1  0  0  0  0
  9 10  2  0  0  0  0
  6 11  1  0  0  0  0
 11 12  2  0  0  0  0
 11 13  1  0  0  0  0
  1 14  1  0  0  0  0
  1 15  1  0  0  0  0
  1 16  1  0  0  0  0
  4 17  1  0  0  0  0
  4 18  1  0  0  0  0
  5 19  1  0  0  0  0
  5 20  1  0  0  0  0
  8 21  1  0  0  0  0
  8 22  1  0  0  0  0
 12 23  1  0  0  0  0
 12 24  1  0  0  0  0
 13 25  1  0  0  0  0
 13 26  1  0  0  0  0
 13 27  1  0  0  0  0
M  END
