 xtb: 6.7.1 (edcfbbe)
          04042521073D

 15 14  0     0  0            999 V2000
   -2.1635    0.3545    0.4029 C   0  0  0  0  0  0  0  0  0  0  0  0
   -1.0302    0.1159   -0.5959 C   0  0  0  0  0  0  0  0  0  0  0  0
   -0.0002   -0.8074   -0.0221 C   0  0  0  0  0  0  0  0  0  0  0  0
    1.2758   -0.5501    0.2231 C   0  0  0  0  0  0  0  0  0  0  0  0
    2.0181    0.7223   -0.0252 C   0  0  0  0  0  0  0  0  0  0  0  0
   -1.7780    0.8260    1.3041 H   0  0  0  0  0  0  0  0  0  0  0  0
   -2.6304   -0.5876    0.6817 H   0  0  0  0  0  0  0  0  0  0  0  0
   -2.9220    1.0017   -0.0306 H   0  0  0  0  0  0  0  0  0  0  0  0
   -1.4448   -0.3413   -1.4990 H   0  0  0  0  0  0  0  0  0  0  0  0
   -0.5883    1.0709   -0.8778 H   0  0  0  0  0  0  0  0  0  0  0  0
   -0.3844   -1.7901    0.2246 H   0  0  0  0  0  0  0  0  0  0  0  0
    1.8860   -1.3372    0.6503 H   0  0  0  0  0  0  0  0  0  0  0  0
    2.8201    0.5465   -0.7415 H   0  0  0  0  0  0  0  0  0  0  0  0
    2.4744    1.0674    0.9021 H   0  0  0  0  0  0  0  0  0  0  0  0
    1.3745    1.5068   -0.4097 H   0  0  0  0  0  0  0  0  0  0  0  0
  1  2  1  0  0  0  0
  2  3  1  0  0  0  0
  3  4  2  0  0  0  0
  4  5  1  0  0  0  0
  1  6  1  0  0  0  0
  1  7  1  0  0  0  0
  1  8  1  0  0  0  0
  2  9  1  0  0  0  0
  2 10  1  0  0  0  0
  3 11  1  0  0  0  0
  4 12  1  0  0  0  0
  5 13  1  0  0  0  0
  5 14  1  0  0  0  0
  5 15  1  0  0  0  0
M  END
