 xtb: 6.7.1 (edcfbbe)
          04062505073D

 29 29  0     0  0            999 V2000
   -3.5014   -0.3655    0.1732 C   0  0  0  0  0  0  0  0  0  0  0  0
   -2.1826    0.1075   -0.4330 C   0  0  0  0  0  0  0  0  0  0  0  0
   -2.4071    0.6927   -1.3301 H   0  0  0  0  0  0  0  0  0  0  0  0
   -1.2839   -1.0700   -0.8349 C   0  0  0  0  0  0  0  0  0  0  0  0
   -0.3611   -1.4870    0.3071 C   0  0  0  0  0  0  0  0  0  0  0  0
    0.6468   -0.3715    0.6555 C   0  0  0  0  0  0  0  0  0  0  0  0
    0.7541   -0.3403    1.7481 H   0  0  0  0  0  0  0  0  0  0  0  0
    0.0439    0.9720    0.3110 C   0  0  0  0  0  0  0  0  0  0  0  0
    0.6636    1.9309   -0.1050 O   0  0  0  0  0  0  0  0  0  0  0  0
   -1.4388    1.0211    0.5644 C   0  0  0  0  0  0  0  0  0  0  0  0
    2.0634   -0.6251    0.0981 C   0  0  0  0  0  0  0  0  0  0  0  0
    2.1371   -0.4986   -1.4217 C   0  0  0  0  0  0  0  0  0  0  0  0
    3.0836    0.3032    0.7578 C   0  0  0  0  0  0  0  0  0  0  0  0
   -3.3214   -1.0116    1.0289 H   0  0  0  0  0  0  0  0  0  0  0  0
   -4.0949    0.4845    0.5007 H   0  0  0  0  0  0  0  0  0  0  0  0
   -4.0763   -0.9212   -0.5634 H   0  0  0  0  0  0  0  0  0  0  0  0
   -1.9034   -1.9157   -1.1357 H   0  0  0  0  0  0  0  0  0  0  0  0
   -0.6772   -0.7784   -1.6934 H   0  0  0  0  0  0  0  0  0  0  0  0
   -0.9671   -1.7318    1.1800 H   0  0  0  0  0  0  0  0  0  0  0  0
    0.1861   -2.3879    0.0284 H   0  0  0  0  0  0  0  0  0  0  0  0
   -1.6235    0.6645    1.5781 H   0  0  0  0  0  0  0  0  0  0  0  0
   -1.7922    2.0490    0.4798 H   0  0  0  0  0  0  0  0  0  0  0  0
    2.3277   -1.6554    0.3672 H   0  0  0  0  0  0  0  0  0  0  0  0
    1.8283    0.4960   -1.7350 H   0  0  0  0  0  0  0  0  0  0  0  0
    1.5050   -1.2369   -1.9078 H   0  0  0  0  0  0  0  0  0  0  0  0
    3.1599   -0.6570   -1.7557 H   0  0  0  0  0  0  0  0  0  0  0  0
    4.0846    0.0736    0.4007 H   0  0  0  0  0  0  0  0  0  0  0  0
    3.0707    0.1858    1.8395 H   0  0  0  0  0  0  0  0  0  0  0  0
    2.8626    1.3400    0.5188 H   0  0  0  0  0  0  0  0  0  0  0  0
  1  2  1  0  0  0  0
  2  3  1  0  0  0  0
  2  4  1  0  0  0  0
  4  5  1  0  0  0  0
  5  6  1  0  0  0  0
  6  7  1  0  0  0  0
  6  8  1  0  0  0  0
  8  9  2  0  0  0  0
  2 10  1  0  0  0  0
  8 10  1  0  0  0  0
  6 11  1  0  0  0  0
 11 12  1  0  0  0  0
 11 13  1  0  0  0  0
  1 14  1  0  0  0  0
  1 15  1  0  0  0  0
  1 16  1  0  0  0  0
  4 17  1  0  0  0  0
  4 18  1  0  0  0  0
  5 19  1  0  0  0  0
  5 20  1  0  0  0  0
 10 21  1  0  0  0  0
 10 22  1  0  0  0  0
 11 23  1  0  0  0  0
 12 24  1  0  0  0  0
 12 25  1  0  0  0  0
 12 26  1  0  0  0  0
 13 27  1  0  0  0  0
 13 28  1  0  0  0  0
 13 29  1  0  0  0  0
M  END
