19
 xtb: 6.7.1 (edcfbbe)
C           -2.61180772001848       -0.93727809520797       -0.00025222103971
C           -1.15198981484526       -0.58258055076532        0.00000929603180
C           -0.17527377605610       -1.57912895642128        0.00003464230052
C            1.18555338944895       -1.27965020133594        0.00005841257199
C            1.57898636343815        0.05407835217258        0.00006963619298
C            0.62417908268977        1.06899853905484        0.00008087562880
C           -0.73740618804653        0.76527808357372        0.00003954832638
C           -1.75247487037089        1.87154837085599       -0.00011892188207
O            2.90895123338574        0.43142067477105        0.00007648478440
H           -3.12549410652952       -0.52947152847113        0.87840220933984
H           -3.12458975607290       -0.53161144001897       -0.88044626715135
H           -2.74714692871693       -2.02163828581011        0.00096925710811
H           -0.48328218906341       -2.62143323337763        0.00003241619129
H            1.93065178816445       -2.07043069055310        0.00006894435728
H            0.95187617931388        2.10458458034654        0.00011817889081
H           -2.40431290799516        1.81089163968701       -0.87942516097809
H           -2.40562918500747        1.81002286562335        0.87813527921633
H           -1.26791635624809        2.85046978023540        0.00071442023960
H            3.45633961970257       -0.36608649408621        0.00002140268928
