 xtb: 6.7.1 (edcfbbe)
          04062518003D

 24 24  0     0  0            999 V2000
   -2.5537   -0.7012   -0.3219 C   0  0  0  0  0  0  0  0  0  0  0  0
   -1.1630   -0.3189    0.1798 C   0  0  0  0  0  0  0  0  0  0  0  0
   -1.1965   -0.2528    1.2780 H   0  0  0  0  0  0  0  0  0  0  0  0
   -0.7007    1.0275   -0.3931 C   0  0  0  0  0  0  0  0  0  0  0  0
   -0.6704    0.9378   -1.4928 H   0  0  0  0  0  0  0  0  0  0  0  0
    0.7112    1.3274    0.1274 C   0  0  0  0  0  0  0  0  0  0  0  0
    0.6588    1.4904    1.2106 H   0  0  0  0  0  0  0  0  0  0  0  0
    1.6708    0.1585   -0.1415 C   0  0  0  0  0  0  0  0  0  0  0  0
    1.8713    0.0762   -1.2219 H   0  0  0  0  0  0  0  0  0  0  0  0
    1.0419   -1.1730    0.3018 C   0  0  0  0  0  0  0  0  0  0  0  0
    1.0069   -1.1819    1.4114 H   0  0  0  0  0  0  0  0  0  0  0  0
   -0.2596   -1.3322   -0.2133 O   0  0  0  0  0  0  0  0  0  0  0  0
    1.8143   -2.2027   -0.1895 O   0  0  0  0  0  0  0  0  0  0  0  0
    2.8686    0.3191    0.5715 O   0  0  0  0  0  0  0  0  0  0  0  0
    1.2081    2.5334   -0.4031 O   0  0  0  0  0  0  0  0  0  0  0  0
   -1.6059    2.0311   -0.0151 O   0  0  0  0  0  0  0  0  0  0  0  0
   -3.0793   -1.6983    0.5220 O   0  0  0  0  0  0  0  0  0  0  0  0
   -2.4555   -1.0667   -1.3503 H   0  0  0  0  0  0  0  0  0  0  0  0
   -3.1761    0.2009   -0.2992 H   0  0  0  0  0  0  0  0  0  0  0  0
    1.3646   -3.0479   -0.0299 H   0  0  0  0  0  0  0  0  0  0  0  0
    3.2201    1.2069    0.3952 H   0  0  0  0  0  0  0  0  0  0  0  0
    1.3017    2.4565   -1.3652 H   0  0  0  0  0  0  0  0  0  0  0  0
   -1.1644    2.8927   -0.0942 H   0  0  0  0  0  0  0  0  0  0  0  0
   -3.9405   -1.9795    0.1817 H   0  0  0  0  0  0  0  0  0  0  0  0
  1  2  1  0  0  0  0
  2  3  1  0  0  0  0
  2  4  1  0  0  0  0
  4  5  1  0  0  0  0
  4  6  1  0  0  0  0
  6  7  1  0  0  0  0
  6  8  1  0  0  0  0
  8  9  1  0  0  0  0
  8 10  1  0  0  0  0
 10 11  1  0  0  0  0
  2 12  1  0  0  0  0
 10 12  1  0  0  0  0
 10 13  1  0  0  0  0
  8 14  1  0  0  0  0
  6 15  1  0  0  0  0
  4 16  1  0  0  0  0
  1 17  1  0  0  0  0
  1 18  1  0  0  0  0
  1 19  1  0  0  0  0
 13 20  1  0  0  0  0
 14 21  1  0  0  0  0
 15 22  1  0  0  0  0
 16 23  1  0  0  0  0
 17 24  1  0  0  0  0
M  END
