26
 xtb: 6.7.1 (edcfbbe)
C           -3.46109547748031       -0.70160146929310       -1.52195880530808
N           -2.37161275959526       -0.17006510493680       -0.71311780090942
C           -2.37496638151849       -0.21722006977645        0.62411482837089
O           -3.24846212729126       -0.69841309295105        1.33676032111002
O           -1.28204833620695        0.34498551974463        1.26906092756937
C           -0.19414720329030        0.83271726973299        0.53151197443726
C           -0.17382524548453        2.15269399496415        0.16115420450500
C            0.95035608963118        2.66296013231618       -0.52096531443718
C            2.01933689180999        1.84926669356440       -0.80963364990536
C            2.01380413351974        0.48434106770337       -0.43087979362106
C            0.87989268728061       -0.05096824533287        0.26052840225169
C            0.87251290822075       -1.41431327446827        0.63976078421927
C            1.94837013001827       -2.21846912089022        0.34545370087883
C            3.07061675568869       -1.69732280841462       -0.33432362673546
C            3.10245642382758       -0.37667507729848       -0.71337322812979
H           -4.23631991163243       -1.09702045894498       -0.86610123523493
H           -3.09978372639684       -1.50540703269543       -2.17013103649226
H           -3.89093926610681        0.08893031899783       -2.14367653380762
H           -1.60129098976240        0.28153829692977       -1.18619777682001
H           -1.02133103894669        2.78832345084655        0.39576323821688
H            0.96172009555320        3.70775260202688       -0.81274840494567
H            2.88610435090204        2.24128880898014       -1.33315887889891
H            0.01184459639038       -1.81690942311214        1.16363294232696
H            1.93791808481098       -3.26326493427072        0.63879772543497
H            3.91101150283774       -2.34714194773189       -0.55641121365452
H            3.96338797539615        0.02889285847615       -1.23679508014854
