 xtb: 6.7.1 (edcfbbe)
          04052503093D

 19 19  0     0  0            999 V2000
   -2.3772    0.3518   -1.2204 C   0  0  0  0  0  0  0  0  0  0  0  0
   -1.7262   -0.0592    0.0654 C   0  0  0  0  0  0  0  0  0  0  0  0
   -2.4009   -0.4281    1.1423 C   0  0  0  0  0  0  0  0  0  0  0  0
   -0.2428   -0.0232    0.0522 C   0  0  0  0  0  0  0  0  0  0  0  0
    0.4845   -1.1279   -0.3745 C   0  0  0  0  0  0  0  0  0  0  0  0
    1.8674   -1.0878   -0.4031 C   0  0  0  0  0  0  0  0  0  0  0  0
    2.5377    0.0583   -0.0094 C   0  0  0  0  0  0  0  0  0  0  0  0
    1.8196    1.1632    0.4163 C   0  0  0  0  0  0  0  0  0  0  0  0
    0.4368    1.1231    0.4466 C   0  0  0  0  0  0  0  0  0  0  0  0
   -2.0433   -0.2968   -2.0292 H   0  0  0  0  0  0  0  0  0  0  0  0
   -3.4596    0.2990   -1.1428 H   0  0  0  0  0  0  0  0  0  0  0  0
   -2.0853    1.3702   -1.4736 H   0  0  0  0  0  0  0  0  0  0  0  0
   -1.9007   -0.7179    2.0510 H   0  0  0  0  0  0  0  0  0  0  0  0
   -3.4776   -0.4559    1.1555 H   0  0  0  0  0  0  0  0  0  0  0  0
   -0.0398   -2.0223   -0.6787 H   0  0  0  0  0  0  0  0  0  0  0  0
    2.4233   -1.9528   -0.7334 H   0  0  0  0  0  0  0  0  0  0  0  0
    3.6167    0.0898   -0.0331 H   0  0  0  0  0  0  0  0  0  0  0  0
    2.3381    2.0587    0.7257 H   0  0  0  0  0  0  0  0  0  0  0  0
   -0.1252    1.9832    0.7812 H   0  0  0  0  0  0  0  0  0  0  0  0
  1  2  1  0  0  0  0
  2  3  2  0  0  0  0
  2  4  1  0  0  0  0
  4  5  4  0  0  0  0
  5  6  4  0  0  0  0
  6  7  4  0  0  0  0
  7  8  4  0  0  0  0
  4  9  4  0  0  0  0
  8  9  4  0  0  0  0
  1 10  1  0  0  0  0
  1 11  1  0  0  0  0
  1 12  1  0  0  0  0
  3 13  1  0  0  0  0
  3 14  1  0  0  0  0
  5 15  1  0  0  0  0
  6 16  1  0  0  0  0
  7 17  1  0  0  0  0
  8 18  1  0  0  0  0
  9 19  1  0  0  0  0
M  END
