 xtb: 6.7.1 (edcfbbe)
          04032521453D

 24 26  0     0  0            999 V2000
    2.8640   -0.0009    1.2480 C   0  0  0  0  0  0  0  0  0  0  0  0
    1.9741    1.2313    1.4195 C   0  0  0  0  0  0  0  0  0  0  0  0
    2.1147    1.6758    2.4044 H   0  0  0  0  0  0  0  0  0  0  0  0
    0.4999    0.7806    1.3048 C   0  0  0  0  0  0  0  0  0  0  0  0
   -0.0322    1.1738    2.1715 H   0  0  0  0  0  0  0  0  0  0  0  0
    0.4994   -0.7810    1.3048 C   0  0  0  0  0  0  0  0  0  0  0  0
   -0.0330   -1.1738    2.1715 H   0  0  0  0  0  0  0  0  0  0  0  0
    1.9733   -1.2325    1.4197 C   0  0  0  0  0  0  0  0  0  0  0  0
    2.1135   -1.6770    2.4047 H   0  0  0  0  0  0  0  0  0  0  0  0
    2.4891   -2.5182    0.2807 Cl  0  0  0  0  0  0  0  0  0  0  0  0
   -0.3846   -1.1199    0.0678 C   0  0  0  0  0  0  0  0  0  0  0  0
   -1.7804   -0.6675    0.4900 C   0  0  0  0  0  0  0  0  0  0  0  0
   -1.7800    0.6686    0.4900 C   0  0  0  0  0  0  0  0  0  0  0  0
   -0.3840    1.1202    0.0678 C   0  0  0  0  0  0  0  0  0  0  0  0
   -0.0637    0.0000   -0.9458 C   0  0  0  0  0  0  0  0  0  0  0  0
    1.5447   -0.0005   -1.6277 Cl  0  0  0  0  0  0  0  0  0  0  0  0
   -1.2044    0.0004   -2.3217 Cl  0  0  0  0  0  0  0  0  0  0  0  0
   -0.3878    2.7599   -0.5613 Cl  0  0  0  0  0  0  0  0  0  0  0  0
   -3.0077    1.7427    0.9303 Cl  0  0  0  0  0  0  0  0  0  0  0  0
   -3.0088   -1.7410    0.9302 Cl  0  0  0  0  0  0  0  0  0  0  0  0
   -0.3893   -2.7596   -0.5614 Cl  0  0  0  0  0  0  0  0  0  0  0  0
    2.4908    2.5165    0.2803 Cl  0  0  0  0  0  0  0  0  0  0  0  0
    3.6684   -0.0011    1.9790 H   0  0  0  0  0  0  0  0  0  0  0  0
    3.3178   -0.0011    0.2597 H   0  0  0  0  0  0  0  0  0  0  0  0
  1  2  1  0  0  0  0
  2  3  1  0  0  0  0
  2  4  1  0  0  0  0
  4  5  1  0  0  0  0
  4  6  1  0  0  0  0
  6  7  1  0  0  0  0
  1  8  1  0  0  0  0
  6  8  1  0  0  0  0
  8  9  1  0  0  0  0
  8 10  1  0  0  0  0
  6 11  1  0  0  0  0
 11 12  1  0  0  0  0
 12 13  2  0  0  0  0
  4 14  1  0  0  0  0
 13 14  1  0  0  0  0
 11 15  1  0  0  0  0
 14 15  1  0  0  0  0
 15 16  1  0  0  0  0
 15 17  1  0  0  0  0
 14 18  1  0  0  0  0
 13 19  1  0  0  0  0
 12 20  1  0  0  0  0
 11 21  1  0  0  0  0
  2 22  1  0  0  0  0
  1 23  1  0  0  0  0
  1 24  1  0  0  0  0
M  END
