 xtb: 6.7.1 (edcfbbe)
          04062518003D

 24 24  0     0  0            999 V2000
   -2.3829   -0.9089    0.4296 C   0  0  0  0  0  0  0  0  0  0  0  0
   -0.9331   -0.4380    0.6204 C   0  0  0  0  0  0  0  0  0  0  0  0
   -0.6517   -0.5526    1.6781 H   0  0  0  0  0  0  0  0  0  0  0  0
   -0.7470    1.0402    0.2040 C   0  0  0  0  0  0  0  0  0  0  0  0
   -1.5205    1.2988   -0.5318 H   0  0  0  0  0  0  0  0  0  0  0  0
    0.6418    1.2434   -0.4449 C   0  0  0  0  0  0  0  0  0  0  0  0
    0.9230    2.2952   -0.2901 H   0  0  0  0  0  0  0  0  0  0  0  0
    1.6557    0.3524    0.2785 C   0  0  0  0  0  0  0  0  0  0  0  0
    2.6494    0.4819   -0.1695 H   0  0  0  0  0  0  0  0  0  0  0  0
    1.2632   -1.1328    0.0458 C   0  0  0  0  0  0  0  0  0  0  0  0
    1.5691   -1.7134    0.9320 H   0  0  0  0  0  0  0  0  0  0  0  0
   -0.1237   -1.2883   -0.1744 O   0  0  0  0  0  0  0  0  0  0  0  0
    1.9212   -1.6805   -1.0360 O   0  0  0  0  0  0  0  0  0  0  0  0
    1.7634    0.6584    1.6459 O   0  0  0  0  0  0  0  0  0  0  0  0
    0.6744    0.9002   -1.8039 O   0  0  0  0  0  0  0  0  0  0  0  0
   -0.7939    1.9039    1.3190 O   0  0  0  0  0  0  0  0  0  0  0  0
   -2.8327   -0.7230   -0.8866 O   0  0  0  0  0  0  0  0  0  0  0  0
   -3.0490   -0.3245    1.0664 H   0  0  0  0  0  0  0  0  0  0  0  0
   -2.4435   -1.9640    0.7195 H   0  0  0  0  0  0  0  0  0  0  0  0
    1.6395   -1.2048   -1.8368 H   0  0  0  0  0  0  0  0  0  0  0  0
    1.0141    1.2170    1.9166 H   0  0  0  0  0  0  0  0  0  0  0  0
    0.1726    1.5449   -2.3230 H   0  0  0  0  0  0  0  0  0  0  0  0
   -1.6962    1.9644    1.6618 H   0  0  0  0  0  0  0  0  0  0  0  0
   -2.2838   -1.2635   -1.4725 H   0  0  0  0  0  0  0  0  0  0  0  0
  1  2  1  0  0  0  0
  2  3  1  0  0  0  0
  2  4  1  0  0  0  0
  4  5  1  0  0  0  0
  4  6  1  0  0  0  0
  6  7  1  0  0  0  0
  6  8  1  0  0  0  0
  8  9  1  0  0  0  0
  8 10  1  0  0  0  0
 10 11  1  0  0  0  0
  2 12  1  0  0  0  0
 10 12  1  0  0  0  0
 10 13  1  0  0  0  0
  8 14  1  0  0  0  0
  6 15  1  0  0  0  0
  4 16  1  0  0  0  0
  1 17  1  0  0  0  0
  1 18  1  0  0  0  0
  1 19  1  0  0  0  0
 13 20  1  0  0  0  0
 14 21  1  0  0  0  0
 15 22  1  0  0  0  0
 16 23  1  0  0  0  0
 17 24  1  0  0  0  0
M  END
