 xtb: 6.7.1 (edcfbbe)
          04062518003D

 24 24  0     0  0            999 V2000
   -2.3740   -0.7679   -0.1078 C   0  0  0  0  0  0  0  0  0  0  0  0
   -1.0099   -0.2688    0.3951 C   0  0  0  0  0  0  0  0  0  0  0  0
   -1.1332    0.1197    1.4171 H   0  0  0  0  0  0  0  0  0  0  0  0
   -0.5109    0.8797   -0.4860 C   0  0  0  0  0  0  0  0  0  0  0  0
   -0.4660    0.5304   -1.5288 H   0  0  0  0  0  0  0  0  0  0  0  0
    0.8996    1.3351   -0.0593 C   0  0  0  0  0  0  0  0  0  0  0  0
    0.8031    2.0283    0.7847 H   0  0  0  0  0  0  0  0  0  0  0  0
    1.7792    0.1481    0.4039 C   0  0  0  0  0  0  0  0  0  0  0  0
    2.7805    0.2766   -0.0189 H   0  0  0  0  0  0  0  0  0  0  0  0
    1.1820   -1.1733   -0.0966 C   0  0  0  0  0  0  0  0  0  0  0  0
    1.7670   -2.0131    0.3057 H   0  0  0  0  0  0  0  0  0  0  0  0
   -0.1011   -1.3716    0.4422 O   0  0  0  0  0  0  0  0  0  0  0  0
    1.1993   -1.1668   -1.4893 O   0  0  0  0  0  0  0  0  0  0  0  0
    1.9499    0.1114    1.7968 O   0  0  0  0  0  0  0  0  0  0  0  0
    1.5078    2.0775   -1.0866 O   0  0  0  0  0  0  0  0  0  0  0  0
   -1.4388    1.9313   -0.3696 O   0  0  0  0  0  0  0  0  0  0  0  0
   -2.9697   -1.7167    0.7368 O   0  0  0  0  0  0  0  0  0  0  0  0
   -2.2421   -1.2705   -1.0677 H   0  0  0  0  0  0  0  0  0  0  0  0
   -3.0202    0.1076   -0.2433 H   0  0  0  0  0  0  0  0  0  0  0  0
    0.9724   -2.0445   -1.8324 H   0  0  0  0  0  0  0  0  0  0  0  0
    1.1724   -0.2913    2.2109 H   0  0  0  0  0  0  0  0  0  0  0  0
    1.6731    1.4973   -1.8449 H   0  0  0  0  0  0  0  0  0  0  0  0
   -1.0988    2.6994   -0.8528 H   0  0  0  0  0  0  0  0  0  0  0  0
   -3.1412   -1.3190    1.6019 H   0  0  0  0  0  0  0  0  0  0  0  0
  1  2  1  0  0  0  0
  2  3  1  0  0  0  0
  2  4  1  0  0  0  0
  4  5  1  0  0  0  0
  4  6  1  0  0  0  0
  6  7  1  0  0  0  0
  6  8  1  0  0  0  0
  8  9  1  0  0  0  0
  8 10  1  0  0  0  0
 10 11  1  0  0  0  0
  2 12  1  0  0  0  0
 10 12  1  0  0  0  0
 10 13  1  0  0  0  0
  8 14  1  0  0  0  0
  6 15  1  0  0  0  0
  4 16  1  0  0  0  0
  1 17  1  0  0  0  0
  1 18  1  0  0  0  0
  1 19  1  0  0  0  0
 13 20  1  0  0  0  0
 14 21  1  0  0  0  0
 15 22  1  0  0  0  0
 16 23  1  0  0  0  0
 17 24  1  0  0  0  0
M  END
