 xtb: 6.7.1 (edcfbbe)
          04062518003D

 24 24  0     0  0            999 V2000
   -2.0732   -1.2429   -0.1890 C   0  0  0  0  0  0  0  0  0  0  0  0
   -1.2445   -0.3643    0.7632 C   0  0  0  0  0  0  0  0  0  0  0  0
   -1.8338   -0.2117    1.6739 H   0  0  0  0  0  0  0  0  0  0  0  0
   -0.9354    1.0283    0.1511 C   0  0  0  0  0  0  0  0  0  0  0  0
   -1.2194    1.0280   -0.9116 H   0  0  0  0  0  0  0  0  0  0  0  0
    0.5705    1.2930    0.2370 C   0  0  0  0  0  0  0  0  0  0  0  0
    0.8549    1.3908    1.2901 H   0  0  0  0  0  0  0  0  0  0  0  0
    1.3216    0.1078   -0.3885 C   0  0  0  0  0  0  0  0  0  0  0  0
    0.9834   -0.0177   -1.4319 H   0  0  0  0  0  0  0  0  0  0  0  0
    1.0079   -1.1864    0.3896 C   0  0  0  0  0  0  0  0  0  0  0  0
    1.8551   -1.4134    1.0469 H   0  0  0  0  0  0  0  0  0  0  0  0
   -0.0851   -1.0208    1.2638 O   0  0  0  0  0  0  0  0  0  0  0  0
    0.8625   -2.2876   -0.4397 O   0  0  0  0  0  0  0  0  0  0  0  0
    2.7090    0.3244   -0.3698 O   0  0  0  0  0  0  0  0  0  0  0  0
    0.9610    2.4945   -0.3745 O   0  0  0  0  0  0  0  0  0  0  0  0
   -1.5964    2.0638    0.8366 O   0  0  0  0  0  0  0  0  0  0  0  0
   -1.4796   -1.2837   -1.4758 O   0  0  0  0  0  0  0  0  0  0  0  0
   -3.0801   -0.8190   -0.2543 H   0  0  0  0  0  0  0  0  0  0  0  0
   -2.1286   -2.2484    0.2426 H   0  0  0  0  0  0  0  0  0  0  0  0
    0.1227   -2.1121   -1.0602 H   0  0  0  0  0  0  0  0  0  0  0  0
    2.8646    1.2747   -0.5087 H   0  0  0  0  0  0  0  0  0  0  0  0
    0.5446    2.5729   -1.2461 H   0  0  0  0  0  0  0  0  0  0  0  0
   -2.5428    2.0497    0.6363 H   0  0  0  0  0  0  0  0  0  0  0  0
   -2.0661   -1.7647   -2.0780 H   0  0  0  0  0  0  0  0  0  0  0  0
  1  2  1  0  0  0  0
  2  3  1  0  0  0  0
  2  4  1  0  0  0  0
  4  5  1  0  0  0  0
  4  6  1  0  0  0  0
  6  7  1  0  0  0  0
  6  8  1  0  0  0  0
  8  9  1  0  0  0  0
  8 10  1  0  0  0  0
 10 11  1  0  0  0  0
  2 12  1  0  0  0  0
 10 12  1  0  0  0  0
 10 13  1  0  0  0  0
  8 14  1  0  0  0  0
  6 15  1  0  0  0  0
  4 16  1  0  0  0  0
  1 17  1  0  0  0  0
  1 18  1  0  0  0  0
  1 19  1  0  0  0  0
 13 20  1  0  0  0  0
 14 21  1  0  0  0  0
 15 22  1  0  0  0  0
 16 23  1  0  0  0  0
 17 24  1  0  0  0  0
M  END
