24
 xtb: 6.7.1 (edcfbbe)
C           -2.01512062410972       -0.73635990425977        1.25524799641212
C           -1.52044113488406        0.00570749770040        0.00008362716736
C           -2.01567626870975       -0.73682007244347       -1.25457766582600
C           -2.12904269957532        1.41133145480805       -0.00005261024895
C            0.01025458155581        0.03129590587865       -0.00014366371882
C            0.74859145559109        1.21899876679884       -0.00014959790999
C            2.14428206921196        1.20297988452906       -0.00011366027724
C            2.83515276666238       -0.00329426999653       -0.00007931085136
C            2.11477847466771       -1.19686021758507       -0.00012424540154
C            0.72438280942669       -1.17680920336456       -0.00016016533210
H           -3.11054412815441       -0.75657607565451        1.26957825188932
H           -1.65837727233239       -1.77036090994097        1.27830627784781
H           -1.66941449538952       -0.23438103133701        2.16545995004855
H           -1.67082936683457       -0.23488871482910       -2.16513965909463
H           -1.65855306867404       -1.77068616677876       -1.27768468069522
H           -3.11110006551989       -0.75747914178537       -1.26812140112366
H           -1.83738114322360        1.98140864731308       -0.88843452513736
H           -3.22067178958673        1.32929509504920        0.00007781671630
H           -1.83719522849503        1.98167305284481        0.88809735532123
H            0.24184041293728        2.17714274013918       -0.00015805530162
H            2.68923095476847        2.14244242682434       -0.00009057916529
H            3.92057091211445       -0.01646547053604       -0.00001103398827
H            2.63819290289449       -2.14845771528308       -0.00010943175524
H            0.18776225884791       -2.12074520287649       -0.00016447401561
