 xtb: 6.7.1 (edcfbbe)
          04032521423D

  9  8  0     0  0            999 V2000
   -1.4466   -0.0984    0.0000 C   0  0  0  0  0  0  0  0  0  0  0  0
    0.0532    0.0734   -0.0001 C   0  0  0  0  0  0  0  0  0  0  0  0
    0.6027    1.1716    0.0000 O   0  0  0  0  0  0  0  0  0  0  0  0
    0.7500   -1.0709   -0.0000 N   0  0  0  0  0  0  0  0  0  0  0  0
   -1.7538   -0.6533   -0.8822 H   0  0  0  0  0  0  0  0  0  0  0  0
   -1.7542   -0.6455    0.8869 H   0  0  0  0  0  0  0  0  0  0  0  0
   -1.9214    0.8780   -0.0043 H   0  0  0  0  0  0  0  0  0  0  0  0
    1.7562   -1.0343    0.0003 H   0  0  0  0  0  0  0  0  0  0  0  0
    0.2873   -1.9631   -0.0002 H   0  0  0  0  0  0  0  0  0  0  0  0
  1  2  1  0  0  0  0
  2  3  2  0  0  0  0
  2  4  4  0  0  0  0
  1  5  1  0  0  0  0
  1  6  1  0  0  0  0
  1  7  1  0  0  0  0
  4  8  1  0  0  0  0
  4  9  1  0  0  0  0
M  END
