 xtb: 6.7.1 (edcfbbe)
          04052503343D

 18 17  0     0  0            999 V2000
    2.1477   -0.0023    0.0277 C   0  0  0  0  0  0  0  0  0  0  0  0
    0.8705   -0.7026    0.4782 C   0  0  0  0  0  0  0  0  0  0  0  0
   -0.4184    0.0001    0.0166 C   0  0  0  0  0  0  0  0  0  0  0  0
   -0.4832    1.4483    0.5155 C   0  0  0  0  0  0  0  0  0  0  0  0
   -1.6331   -0.7784    0.5411 C   0  0  0  0  0  0  0  0  0  0  0  0
   -0.4026   -0.0312   -1.4086 O   0  0  0  0  0  0  0  0  0  0  0  0
    2.2762    0.9477    0.5391 H   0  0  0  0  0  0  0  0  0  0  0  0
    2.1103    0.1755   -1.0440 H   0  0  0  0  0  0  0  0  0  0  0  0
    3.0093   -0.6279    0.2467 H   0  0  0  0  0  0  0  0  0  0  0  0
    0.8547   -0.7841    1.5656 H   0  0  0  0  0  0  0  0  0  0  0  0
    0.8569   -1.7109    0.0594 H   0  0  0  0  0  0  0  0  0  0  0  0
   -1.4582    1.8791    0.2967 H   0  0  0  0  0  0  0  0  0  0  0  0
   -0.3231    1.4815    1.5891 H   0  0  0  0  0  0  0  0  0  0  0  0
    0.2772    2.0489    0.0242 H   0  0  0  0  0  0  0  0  0  0  0  0
   -1.6228   -0.8035    1.6267 H   0  0  0  0  0  0  0  0  0  0  0  0
   -2.5578   -0.3079    0.2134 H   0  0  0  0  0  0  0  0  0  0  0  0
   -1.6107   -1.7985    0.1647 H   0  0  0  0  0  0  0  0  0  0  0  0
   -1.1982    0.4065   -1.7386 H   0  0  0  0  0  0  0  0  0  0  0  0
  1  2  1  0  0  0  0
  2  3  1  0  0  0  0
  3  4  1  0  0  0  0
  3  5  1  0  0  0  0
  3  6  1  0  0  0  0
  1  7  1  0  0  0  0
  1  8  1  0  0  0  0
  1  9  1  0  0  0  0
  2 10  1  0  0  0  0
  2 11  1  0  0  0  0
  4 12  1  0  0  0  0
  4 13  1  0  0  0  0
  4 14  1  0  0  0  0
  5 15  1  0  0  0  0
  5 16  1  0  0  0  0
  5 17  1  0  0  0  0
  6 18  1  0  0  0  0
M  END
