 xtb: 6.7.1 (edcfbbe)
          04032521163D

 19 19  0     0  0            999 V2000
   -3.0884    0.4008    0.0839 C   0  0  0  0  0  0  0  0  0  0  0  0
   -1.6297    0.0567    0.0370 C   0  0  0  0  0  0  0  0  0  0  0  0
   -1.1993   -1.2579   -0.0385 C   0  0  0  0  0  0  0  0  0  0  0  0
    0.1515   -1.5583   -0.0930 C   0  0  0  0  0  0  0  0  0  0  0  0
    1.0955   -0.5437   -0.0731 C   0  0  0  0  0  0  0  0  0  0  0  0
    0.6843    0.7926    0.0029 C   0  0  0  0  0  0  0  0  0  0  0  0
   -0.6706    1.0644    0.0562 C   0  0  0  0  0  0  0  0  0  0  0  0
    1.7154    1.8783    0.0245 C   0  0  0  0  0  0  0  0  0  0  0  0
    2.4370   -0.7971   -0.1243 O   0  0  0  0  0  0  0  0  0  0  0  0
   -3.6908   -0.4892    0.2445 H   0  0  0  0  0  0  0  0  0  0  0  0
   -3.2878    1.1105    0.8842 H   0  0  0  0  0  0  0  0  0  0  0  0
   -3.3959    0.8607   -0.8547 H   0  0  0  0  0  0  0  0  0  0  0  0
   -1.9206   -2.0618   -0.0546 H   0  0  0  0  0  0  0  0  0  0  0  0
    0.4709   -2.5896   -0.1506 H   0  0  0  0  0  0  0  0  0  0  0  0
   -0.9923    2.0947    0.1152 H   0  0  0  0  0  0  0  0  0  0  0  0
    1.2478    2.8559    0.0942 H   0  0  0  0  0  0  0  0  0  0  0  0
    2.3857    1.7383    0.8713 H   0  0  0  0  0  0  0  0  0  0  0  0
    2.3223    1.8333   -0.8788 H   0  0  0  0  0  0  0  0  0  0  0  0
    2.5947   -1.7510   -0.1737 H   0  0  0  0  0  0  0  0  0  0  0  0
  1  2  1  0  0  0  0
  2  3  4  0  0  0  0
  3  4  4  0  0  0  0
  4  5  4  0  0  0  0
  5  6  4  0  0  0  0
  2  7  4  0  0  0  0
  6  7  4  0  0  0  0
  6  8  1  0  0  0  0
  5  9  1  0  0  0  0
  1 10  1  0  0  0  0
  1 11  1  0  0  0  0
  1 12  1  0  0  0  0
  3 13  1  0  0  0  0
  4 14  1  0  0  0  0
  7 15  1  0  0  0  0
  8 16  1  0  0  0  0
  8 17  1  0  0  0  0
  8 18  1  0  0  0  0
  9 19  1  0  0  0  0
M  END
