 xtb: 6.7.1 (edcfbbe)
          04042520253D

 15 14  0     0  0            999 V2000
    2.0903    0.0836   -0.1236 C   0  0  0  0  0  0  0  0  0  0  0  0
    0.7588    0.6689    0.3370 C   0  0  0  0  0  0  0  0  0  0  0  0
   -0.4553    0.0065   -0.3289 C   0  0  0  0  0  0  0  0  0  0  0  0
   -0.3114    0.0134   -1.4226 H   0  0  0  0  0  0  0  0  0  0  0  0
   -1.7407    0.7579    0.0052 C   0  0  0  0  0  0  0  0  0  0  0  0
   -0.6364   -1.3335    0.1034 O   0  0  0  0  0  0  0  0  0  0  0  0
    2.1911   -0.9559    0.1800 H   0  0  0  0  0  0  0  0  0  0  0  0
    2.9132    0.6405    0.3169 H   0  0  0  0  0  0  0  0  0  0  0  0
    2.1778    0.1414   -1.2066 H   0  0  0  0  0  0  0  0  0  0  0  0
    0.7326    1.7332    0.1002 H   0  0  0  0  0  0  0  0  0  0  0  0
    0.6603    0.5585    1.4188 H   0  0  0  0  0  0  0  0  0  0  0  0
   -1.6948    1.7725   -0.3773 H   0  0  0  0  0  0  0  0  0  0  0  0
   -2.5885    0.2437   -0.4392 H   0  0  0  0  0  0  0  0  0  0  0  0
   -1.8799    0.7827    1.0827 H   0  0  0  0  0  0  0  0  0  0  0  0
    0.1576   -1.8427   -0.1046 H   0  0  0  0  0  0  0  0  0  0  0  0
  1  2  1  0  0  0  0
  2  3  1  0  0  0  0
  3  4  1  0  0  0  0
  3  5  1  0  0  0  0
  3  6  1  0  0  0  0
  1  7  1  0  0  0  0
  1  8  1  0  0  0  0
  1  9  1  0  0  0  0
  2 10  1  0  0  0  0
  2 11  1  0  0  0  0
  5 12  1  0  0  0  0
  5 13  1  0  0  0  0
  5 14  1  0  0  0  0
  6 15  1  0  0  0  0
M  END
