 xtb: 6.7.1 (edcfbbe)
          04062517243D

 26 27  0     0  0            999 V2000
   -3.6616   -0.4359   -1.5122 C   0  0  0  0  0  0  0  0  0  0  0  0
   -2.4791   -0.1118   -0.7446 N   0  0  0  0  0  0  0  0  0  0  0  0
   -2.4260   -0.2300    0.5870 C   0  0  0  0  0  0  0  0  0  0  0  0
   -3.3474   -0.6125    1.2867 O   0  0  0  0  0  0  0  0  0  0  0  0
   -1.2545    0.0815    1.1870 O   0  0  0  0  0  0  0  0  0  0  0  0
   -0.1914    0.6457    0.4723 C   0  0  0  0  0  0  0  0  0  0  0  0
   -0.2463    1.9524    0.0595 C   0  0  0  0  0  0  0  0  0  0  0  0
    0.8518    2.5268   -0.5981 C   0  0  0  0  0  0  0  0  0  0  0  0
    1.9800    1.7922   -0.8335 C   0  0  0  0  0  0  0  0  0  0  0  0
    2.0657    0.4468   -0.4172 C   0  0  0  0  0  0  0  0  0  0  0  0
    0.9629   -0.1476    0.2525 C   0  0  0  0  0  0  0  0  0  0  0  0
    1.0486   -1.4914    0.6712 C   0  0  0  0  0  0  0  0  0  0  0  0
    2.1807   -2.2196    0.4334 C   0  0  0  0  0  0  0  0  0  0  0  0
    3.2727   -1.6375   -0.2299 C   0  0  0  0  0  0  0  0  0  0  0  0
    3.2174   -0.3361   -0.6445 C   0  0  0  0  0  0  0  0  0  0  0  0
   -4.4412   -0.7335   -0.8140 H   0  0  0  0  0  0  0  0  0  0  0  0
   -3.4522   -1.2579   -2.1954 H   0  0  0  0  0  0  0  0  0  0  0  0
   -3.9894    0.4360   -2.0765 H   0  0  0  0  0  0  0  0  0  0  0  0
   -1.6570    0.1843   -1.2508 H   0  0  0  0  0  0  0  0  0  0  0  0
   -1.1347    2.5346    0.2517 H   0  0  0  0  0  0  0  0  0  0  0  0
    0.7903    3.5565   -0.9119 H   0  0  0  0  0  0  0  0  0  0  0  0
    2.8255    2.2321   -1.3393 H   0  0  0  0  0  0  0  0  0  0  0  0
    0.2045   -1.9252    1.1873 H   0  0  0  0  0  0  0  0  0  0  0  0
    2.2407   -3.2475    0.7564 H   0  0  0  0  0  0  0  0  0  0  0  0
    4.1576   -2.2289   -0.4078 H   0  0  0  0  0  0  0  0  0  0  0  0
    4.0560    0.1155   -1.1524 H   0  0  0  0  0  0  0  0  0  0  0  0
  1  2  1  0  0  0  0
  2  3  4  0  0  0  0
  3  4  2  0  0  0  0
  3  5  1  0  0  0  0
  5  6  1  0  0  0  0
  6  7  2  0  0  0  0
  7  8  4  0  0  0  0
  8  9  2  0  0  0  0
  9 10  4  0  0  0  0
  6 11  4  0  0  0  0
 10 11  4  0  0  0  0
 11 12  4  0  0  0  0
 12 13  2  0  0  0  0
 13 14  4  0  0  0  0
 10 15  4  0  0  0  0
 14 15  2  0  0  0  0
  1 16  1  0  0  0  0
  1 17  1  0  0  0  0
  1 18  1  0  0  0  0
  2 19  1  0  0  0  0
  7 20  1  0  0  0  0
  8 21  1  0  0  0  0
  9 22  1  0  0  0  0
 12 23  1  0  0  0  0
 13 24  1  0  0  0  0
 14 25  1  0  0  0  0
 15 26  1  0  0  0  0
M  END
