 xtb: 6.7.1 (edcfbbe)
          04062518003D

 24 24  0     0  0            999 V2000
   -2.0743   -1.3669   -0.1358 C   0  0  0  0  0  0  0  0  0  0  0  0
   -1.0194   -0.4960    0.5668 C   0  0  0  0  0  0  0  0  0  0  0  0
   -1.4610   -0.1176    1.4978 H   0  0  0  0  0  0  0  0  0  0  0  0
   -0.6223    0.7043   -0.2990 C   0  0  0  0  0  0  0  0  0  0  0  0
   -0.4580    0.3755   -1.3361 H   0  0  0  0  0  0  0  0  0  0  0  0
    0.7120    1.2452    0.2435 C   0  0  0  0  0  0  0  0  0  0  0  0
    0.6511    1.3342    1.3360 H   0  0  0  0  0  0  0  0  0  0  0  0
    1.7837    0.2045   -0.1022 C   0  0  0  0  0  0  0  0  0  0  0  0
    2.0277    0.3089   -1.1695 H   0  0  0  0  0  0  0  0  0  0  0  0
    1.2281   -1.2197    0.1094 C   0  0  0  0  0  0  0  0  0  0  0  0
    1.9937   -1.7932    0.6492 H   0  0  0  0  0  0  0  0  0  0  0  0
    0.1160   -1.2575    0.9677 O   0  0  0  0  0  0  0  0  0  0  0  0
    0.9483   -1.7684   -1.1399 O   0  0  0  0  0  0  0  0  0  0  0  0
    2.9348    0.3416    0.6873 O   0  0  0  0  0  0  0  0  0  0  0  0
    1.0766    2.4719   -0.3455 O   0  0  0  0  0  0  0  0  0  0  0  0
   -1.6669    1.6456   -0.2464 O   0  0  0  0  0  0  0  0  0  0  0  0
   -3.3440   -0.7644   -0.1199 O   0  0  0  0  0  0  0  0  0  0  0  0
   -2.1723   -2.3118    0.4037 H   0  0  0  0  0  0  0  0  0  0  0  0
   -1.7555   -1.5736   -1.1670 H   0  0  0  0  0  0  0  0  0  0  0  0
    0.8264   -2.7272   -1.0652 H   0  0  0  0  0  0  0  0  0  0  0  0
    3.3187    1.2182    0.5314 H   0  0  0  0  0  0  0  0  0  0  0  0
    0.6198    3.1965    0.1048 H   0  0  0  0  0  0  0  0  0  0  0  0
   -1.4665    2.3693   -0.8594 H   0  0  0  0  0  0  0  0  0  0  0  0
   -3.2474    0.1705   -0.3638 H   0  0  0  0  0  0  0  0  0  0  0  0
  1  2  1  0  0  0  0
  2  3  1  0  0  0  0
  2  4  1  0  0  0  0
  4  5  1  0  0  0  0
  4  6  1  0  0  0  0
  6  7  1  0  0  0  0
  6  8  1  0  0  0  0
  8  9  1  0  0  0  0
  8 10  1  0  0  0  0
 10 11  1  0  0  0  0
  2 12  1  0  0  0  0
 10 12  1  0  0  0  0
 10 13  1  0  0  0  0
  8 14  1  0  0  0  0
  6 15  1  0  0  0  0
  4 16  1  0  0  0  0
  1 17  1  0  0  0  0
  1 18  1  0  0  0  0
  1 19  1  0  0  0  0
 13 20  1  0  0  0  0
 14 21  1  0  0  0  0
 15 22  1  0  0  0  0
 16 23  1  0  0  0  0
 17 24  1  0  0  0  0
M  END
