14
 xtb: 6.7.1 (edcfbbe)
C           -1.03842831953812        0.77680616662384       -0.09446932405294
C           -1.03615385336072       -0.77595166289330       -0.11122243286230
C            0.41556513854956       -1.15197942761656        0.20425903028703
N            1.18356625997099       -0.00333107774941       -0.32225675264676
C            0.42084323029211        1.15426384680904        0.19374397250201
H           -1.71042904152635        1.18606634386107        0.66403758481624
H           -1.35432097124115        1.17082453669967       -1.06444288180546
H           -1.72830621248745       -1.20604905034084        0.61700388304156
H           -1.31983463538333       -1.14815039360465       -1.09979049139604
H            0.54535671981340       -1.26307459370066        1.29390483158539
H            0.72953961268153       -2.08686375008984       -0.26993719583878
H            2.10890116087931       -0.00302521079870        0.09767167845495
H            0.56608441191921        1.28421584455828        1.27906277930640
H            0.72940561764544        2.08058147874559       -0.30044247508155
