 xtb: 6.7.1 (edcfbbe)
          04062505213D

 29 29  0     0  0            999 V2000
   -3.6813   -0.2699    0.1240 C   0  0  0  0  0  0  0  0  0  0  0  0
   -2.1992   -0.2937   -0.2376 C   0  0  0  0  0  0  0  0  0  0  0  0
   -2.0992   -0.5634   -1.2951 H   0  0  0  0  0  0  0  0  0  0  0  0
   -1.4346   -1.3142    0.6022 C   0  0  0  0  0  0  0  0  0  0  0  0
    0.0428   -1.3191    0.2283 C   0  0  0  0  0  0  0  0  0  0  0  0
    0.6750    0.0599    0.4752 C   0  0  0  0  0  0  0  0  0  0  0  0
    0.5152    0.3116    1.5306 H   0  0  0  0  0  0  0  0  0  0  0  0
   -0.1006    1.0851   -0.3212 C   0  0  0  0  0  0  0  0  0  0  0  0
    0.4097    1.8441   -1.1224 O   0  0  0  0  0  0  0  0  0  0  0  0
   -1.5794    1.0973   -0.0377 C   0  0  0  0  0  0  0  0  0  0  0  0
    2.1891    0.1318    0.2014 C   0  0  0  0  0  0  0  0  0  0  0  0
    2.9829   -0.5531    1.3121 C   0  0  0  0  0  0  0  0  0  0  0  0
    2.5744   -0.4443   -1.1600 C   0  0  0  0  0  0  0  0  0  0  0  0
   -3.8125   -0.0129    1.1724 H   0  0  0  0  0  0  0  0  0  0  0  0
   -4.2107    0.4629   -0.4795 H   0  0  0  0  0  0  0  0  0  0  0  0
   -4.1274   -1.2456   -0.0505 H   0  0  0  0  0  0  0  0  0  0  0  0
   -1.5489   -1.0736    1.6611 H   0  0  0  0  0  0  0  0  0  0  0  0
   -1.8537   -2.3080    0.4362 H   0  0  0  0  0  0  0  0  0  0  0  0
    0.5735   -2.0658    0.8188 H   0  0  0  0  0  0  0  0  0  0  0  0
    0.1440   -1.5815   -0.8257 H   0  0  0  0  0  0  0  0  0  0  0  0
   -1.7250    1.4031    1.0006 H   0  0  0  0  0  0  0  0  0  0  0  0
   -2.0597    1.8314   -0.6871 H   0  0  0  0  0  0  0  0  0  0  0  0
    2.4508    1.1973    0.1951 H   0  0  0  0  0  0  0  0  0  0  0  0
    2.7706   -1.6188    1.3380 H   0  0  0  0  0  0  0  0  0  0  0  0
    2.7408   -0.1255    2.2822 H   0  0  0  0  0  0  0  0  0  0  0  0
    4.0484   -0.4250    1.1391 H   0  0  0  0  0  0  0  0  0  0  0  0
    3.6220   -0.2358   -1.3637 H   0  0  0  0  0  0  0  0  0  0  0  0
    1.9800    0.0138   -1.9471 H   0  0  0  0  0  0  0  0  0  0  0  0
    2.4319   -1.5214   -1.1842 H   0  0  0  0  0  0  0  0  0  0  0  0
  1  2  1  0  0  0  0
  2  3  1  0  0  0  0
  2  4  1  0  0  0  0
  4  5  1  0  0  0  0
  5  6  1  0  0  0  0
  6  7  1  0  0  0  0
  6  8  1  0  0  0  0
  8  9  2  0  0  0  0
  2 10  1  0  0  0  0
  8 10  1  0  0  0  0
  6 11  1  0  0  0  0
 11 12  1  0  0  0  0
 11 13  1  0  0  0  0
  1 14  1  0  0  0  0
  1 15  1  0  0  0  0
  1 16  1  0  0  0  0
  4 17  1  0  0  0  0
  4 18  1  0  0  0  0
  5 19  1  0  0  0  0
  5 20  1  0  0  0  0
 10 21  1  0  0  0  0
 10 22  1  0  0  0  0
 11 23  1  0  0  0  0
 12 24  1  0  0  0  0
 12 25  1  0  0  0  0
 12 26  1  0  0  0  0
 13 27  1  0  0  0  0
 13 28  1  0  0  0  0
 13 29  1  0  0  0  0
M  END
