 xtb: 6.7.1 (edcfbbe)
          04042519533D

 16 16  0     0  0            999 V2000
   -2.9603   -0.3521   -0.0022 C   0  0  0  0  0  0  0  0  0  0  0  0
   -1.9596    0.5205    0.0017 C   0  0  0  0  0  0  0  0  0  0  0  0
   -0.5330    0.2164    0.0007 C   0  0  0  0  0  0  0  0  0  0  0  0
    0.3796    1.2733   -0.0001 C   0  0  0  0  0  0  0  0  0  0  0  0
    1.7415    1.0398   -0.0009 C   0  0  0  0  0  0  0  0  0  0  0  0
    2.2230   -0.2589   -0.0007 C   0  0  0  0  0  0  0  0  0  0  0  0
    1.3303   -1.3189    0.0005 C   0  0  0  0  0  0  0  0  0  0  0  0
   -0.0314   -1.0861    0.0013 C   0  0  0  0  0  0  0  0  0  0  0  0
   -3.9855   -0.0248   -0.0024 H   0  0  0  0  0  0  0  0  0  0  0  0
   -2.8060   -1.4172   -0.0053 H   0  0  0  0  0  0  0  0  0  0  0  0
   -2.1898    1.5791    0.0077 H   0  0  0  0  0  0  0  0  0  0  0  0
    0.0109    2.2894   -0.0004 H   0  0  0  0  0  0  0  0  0  0  0  0
    2.4300    1.8719   -0.0019 H   0  0  0  0  0  0  0  0  0  0  0  0
    3.2865   -0.4444   -0.0015 H   0  0  0  0  0  0  0  0  0  0  0  0
    1.7001   -2.3338    0.0001 H   0  0  0  0  0  0  0  0  0  0  0  0
   -0.7104   -1.9243    0.0006 H   0  0  0  0  0  0  0  0  0  0  0  0
  1  2  2  0  0  0  0
  2  3  1  0  0  0  0
  3  4  4  0  0  0  0
  4  5  4  0  0  0  0
  5  6  4  0  0  0  0
  6  7  4  0  0  0  0
  3  8  4  0  0  0  0
  7  8  4  0  0  0  0
  1  9  1  0  0  0  0
  1 10  1  0  0  0  0
  2 11  1  0  0  0  0
  4 12  1  0  0  0  0
  5 13  1  0  0  0  0
  6 14  1  0  0  0  0
  7 15  1  0  0  0  0
  8 16  1  0  0  0  0
M  END
