 xtb: 6.7.1 (edcfbbe)
          04032521583D

 12 11  0     0  0            999 V2000
   -1.6551    1.2411   -0.0099 C   0  0  0  0  0  0  0  0  0  0  0  0
   -0.9516   -0.0226    0.4729 C   0  0  0  0  0  0  0  0  0  0  0  0
   -0.9410   -0.0784    1.5672 H   0  0  0  0  0  0  0  0  0  0  0  0
    0.5219    0.0089    0.0311 C   0  0  0  0  0  0  0  0  0  0  0  0
    1.1798    1.0819    0.5056 F   0  0  0  0  0  0  0  0  0  0  0  0
    1.2115   -1.0678    0.4452 F   0  0  0  0  0  0  0  0  0  0  0  0
    0.6574    0.0461   -1.3077 F   0  0  0  0  0  0  0  0  0  0  0  0
   -1.5448   -1.2085    0.0328 O   0  0  0  0  0  0  0  0  0  0  0  0
   -2.6970    1.2012    0.2919 H   0  0  0  0  0  0  0  0  0  0  0  0
   -1.5967    1.3160   -1.0937 H   0  0  0  0  0  0  0  0  0  0  0  0
   -1.1899    2.1182    0.4299 H   0  0  0  0  0  0  0  0  0  0  0  0
   -1.7520   -1.1549   -0.9139 H   0  0  0  0  0  0  0  0  0  0  0  0
  1  2  1  0  0  0  0
  2  3  1  0  0  0  0
  2  4  1  0  0  0  0
  4  5  1  0  0  0  0
  4  6  1  0  0  0  0
  4  7  1  0  0  0  0
  2  8  1  0  0  0  0
  1  9  1  0  0  0  0
  1 10  1  0  0  0  0
  1 11  1  0  0  0  0
  8 12  1  0  0  0  0
M  END
