 xtb: 6.7.1 (edcfbbe)
          04032521373D

 24 24  0     0  0            999 V2000
    2.1249   -2.0975   -0.0404 C   0  0  0  0  0  0  0  0  0  0  0  0
    1.1681   -0.9672    0.1092 C   0  0  0  0  0  0  0  0  0  0  0  0
    1.5480    0.3139   -0.0226 C   0  0  0  0  0  0  0  0  0  0  0  0
    0.6337    1.4296    0.1219 C   0  0  0  0  0  0  0  0  0  0  0  0
    0.9888    2.5940   -0.0499 O   0  0  0  0  0  0  0  0  0  0  0  0
   -0.7767    1.0891    0.5367 C   0  0  0  0  0  0  0  0  0  0  0  0
   -1.2538   -0.2600   -0.0115 C   0  0  0  0  0  0  0  0  0  0  0  0
   -0.2464   -1.3336    0.4214 C   0  0  0  0  0  0  0  0  0  0  0  0
   -1.3416   -0.2030   -1.5382 C   0  0  0  0  0  0  0  0  0  0  0  0
   -2.6341   -0.5888    0.5604 C   0  0  0  0  0  0  0  0  0  0  0  0
    3.1475   -1.7434   -0.1298 H   0  0  0  0  0  0  0  0  0  0  0  0
    1.8728   -2.6726   -0.9304 H   0  0  0  0  0  0  0  0  0  0  0  0
    2.0473   -2.7679    0.8132 H   0  0  0  0  0  0  0  0  0  0  0  0
    2.5710    0.5733   -0.2583 H   0  0  0  0  0  0  0  0  0  0  0  0
   -0.7770    1.0588    1.6310 H   0  0  0  0  0  0  0  0  0  0  0  0
   -1.4380    1.9019    0.2305 H   0  0  0  0  0  0  0  0  0  0  0  0
   -0.3227   -1.4760    1.5044 H   0  0  0  0  0  0  0  0  0  0  0  0
   -0.4917   -2.2879   -0.0474 H   0  0  0  0  0  0  0  0  0  0  0  0
   -0.3724    0.0281   -1.9745 H   0  0  0  0  0  0  0  0  0  0  0  0
   -2.0435    0.5680   -1.8475 H   0  0  0  0  0  0  0  0  0  0  0  0
   -1.6835   -1.1559   -1.9349 H   0  0  0  0  0  0  0  0  0  0  0  0
   -2.6057   -0.6222    1.6469 H   0  0  0  0  0  0  0  0  0  0  0  0
   -2.9748   -1.5539    0.1940 H   0  0  0  0  0  0  0  0  0  0  0  0
   -3.3572    0.1656    0.2608 H   0  0  0  0  0  0  0  0  0  0  0  0
  1  2  1  0  0  0  0
  2  3  2  0  0  0  0
  3  4  1  0  0  0  0
  4  5  2  0  0  0  0
  4  6  1  0  0  0  0
  6  7  1  0  0  0  0
  2  8  1  0  0  0  0
  7  8  1  0  0  0  0
  7  9  1  0  0  0  0
  7 10  1  0  0  0  0
  1 11  1  0  0  0  0
  1 12  1  0  0  0  0
  1 13  1  0  0  0  0
  3 14  1  0  0  0  0
  6 15  1  0  0  0  0
  6 16  1  0  0  0  0
  8 17  1  0  0  0  0
  8 18  1  0  0  0  0
  9 19  1  0  0  0  0
  9 20  1  0  0  0  0
  9 21  1  0  0  0  0
 10 22  1  0  0  0  0
 10 23  1  0  0  0  0
 10 24  1  0  0  0  0
M  END
