 xtb: 6.7.1 (edcfbbe)
          04062518003D

 24 24  0     0  0            999 V2000
   -2.0243   -1.4085   -0.1830 C   0  0  0  0  0  0  0  0  0  0  0  0
   -1.0331   -0.5001    0.5597 C   0  0  0  0  0  0  0  0  0  0  0  0
   -1.5199   -0.1819    1.4909 H   0  0  0  0  0  0  0  0  0  0  0  0
   -0.6516    0.7422   -0.2557 C   0  0  0  0  0  0  0  0  0  0  0  0
   -0.5468    0.4813   -1.3158 H   0  0  0  0  0  0  0  0  0  0  0  0
    0.7112    1.2497    0.2454 C   0  0  0  0  0  0  0  0  0  0  0  0
    0.6875    1.3498    1.3436 H   0  0  0  0  0  0  0  0  0  0  0  0
    1.7721    0.2091   -0.1271 C   0  0  0  0  0  0  0  0  0  0  0  0
    1.9795    0.3006   -1.2035 H   0  0  0  0  0  0  0  0  0  0  0  0
    1.2269   -1.2117    0.1249 C   0  0  0  0  0  0  0  0  0  0  0  0
    1.9958   -1.7635    0.6817 H   0  0  0  0  0  0  0  0  0  0  0  0
    0.1160   -1.2279    0.9873 O   0  0  0  0  0  0  0  0  0  0  0  0
    0.9456   -1.8003   -1.1048 O   0  0  0  0  0  0  0  0  0  0  0  0
    2.9518    0.3569    0.6185 O   0  0  0  0  0  0  0  0  0  0  0  0
    1.0438    2.4844   -0.3380 O   0  0  0  0  0  0  0  0  0  0  0  0
   -1.6093    1.7657   -0.2165 O   0  0  0  0  0  0  0  0  0  0  0  0
   -3.2836   -0.7794   -0.1606 O   0  0  0  0  0  0  0  0  0  0  0  0
   -2.0587   -2.3703    0.3463 H   0  0  0  0  0  0  0  0  0  0  0  0
   -1.6748   -1.5703   -1.2092 H   0  0  0  0  0  0  0  0  0  0  0  0
    0.8728   -2.7623   -1.0089 H   0  0  0  0  0  0  0  0  0  0  0  0
    3.2932    1.2538    0.4820 H   0  0  0  0  0  0  0  0  0  0  0  0
    0.2150    2.9539   -0.5332 H   0  0  0  0  0  0  0  0  0  0  0  0
   -1.9591    1.8649    0.6809 H   0  0  0  0  0  0  0  0  0  0  0  0
   -3.9071   -1.2880   -0.6969 H   0  0  0  0  0  0  0  0  0  0  0  0
  1  2  1  0  0  0  0
  2  3  1  0  0  0  0
  2  4  1  0  0  0  0
  4  5  1  0  0  0  0
  4  6  1  0  0  0  0
  6  7  1  0  0  0  0
  6  8  1  0  0  0  0
  8  9  1  0  0  0  0
  8 10  1  0  0  0  0
 10 11  1  0  0  0  0
  2 12  1  0  0  0  0
 10 12  1  0  0  0  0
 10 13  1  0  0  0  0
  8 14  1  0  0  0  0
  6 15  1  0  0  0  0
  4 16  1  0  0  0  0
  1 17  1  0  0  0  0
  1 18  1  0  0  0  0
  1 19  1  0  0  0  0
 13 20  1  0  0  0  0
 14 21  1  0  0  0  0
 15 22  1  0  0  0  0
 16 23  1  0  0  0  0
 17 24  1  0  0  0  0
M  END
