17
 xtb: 6.7.1 (edcfbbe)
C           -2.07619652321374        0.42757446789170        0.32393320423231
C           -0.82640263757150        0.30101263853294       -0.54402382628791
C            0.42762800047771       -0.13818261461954        0.25406573058224
C            0.94258657726109       -1.49964215095297       -0.21512236687992
C            1.53693311555677        0.91184290756945        0.17991818583973
H           -2.31734363411448       -0.52727608226337        0.80501422019260
H           -2.94676191220656        0.73511248117017       -0.26549217246124
H           -1.92823971296117        1.17069676622868        1.11595961066111
H           -1.01918658595232       -0.41847252900756       -1.34971440270734
H           -0.63236484910545        1.26243760411434       -1.03571930938355
H            0.13452471269007       -0.23865096661642        1.30867983527606
H            0.16176083047147       -2.26523000835745       -0.14418683686468
H            1.79747136489439       -1.83181371220674        0.38473970909856
H            1.26622360190335       -1.44712921012853       -1.26204760469393
H            1.18624329566654        1.88460074759030        0.54261523249256
H            1.87421245476882        1.04168488618898       -0.85587281121946
H            2.40456406758902        0.61910923686332        0.78197809872673
