29
 xtb: 6.7.1 (edcfbbe)
C           -3.37063387978086        0.27760085108355        0.14870088434534
C           -2.18028780316632       -0.54725506295362       -0.33236949743696
H           -2.54651926287172       -1.32809325315016       -1.00812004003664
C           -1.45762250378139       -1.22027070930121        0.85527321327910
C            0.05011160852299       -1.33471183593013        0.63082467107597
C            0.65553605325445        0.07318295402966        0.58051100903520
H            0.59649211687627        0.50455411889266        1.59086282428341
C           -0.17153476541954        0.99391076940027       -0.29761177825208
O            0.02374231365437        2.20831688770166       -0.30772783993295
C           -1.20118165678142        0.33036529386094       -1.15737351068474
C            2.14865418874309        0.14722379129714        0.15607361201884
C            3.02121914720172       -0.69413054935293        1.08552458197861
C            2.37380993733760       -0.24617593673334       -1.30500226854192
H           -4.04481514357499       -0.33388726852472        0.75867439314574
H           -3.03112283520668        1.11890010620621        0.76528424246139
H           -3.94472470666117        0.68138625399455       -0.69184609829319
H           -1.62034057791187       -0.61676298613873        1.75934214329984
H           -1.90219296864322       -2.20193492461880        1.04841120557512
H            0.51190807256474       -1.90139460911837        1.44492716813627
H            0.25328162399106       -1.88441282532404       -0.29649130866678
H           -1.73377053462359        1.07248140443233       -1.75797503673552
H           -0.63741783337424       -0.32326154996595       -1.83822767220611
H            2.44197845842455        1.19845657092662        0.27138009516463
H            2.84286211130676       -0.44491631135721        2.13717493696342
H            4.08042706118539       -0.51834461167635        0.86945979878560
H            2.83009338249847       -1.76424951161372        0.95164115604739
H            2.08173725249474       -1.28507225975566       -1.49127484252554
H            3.43486566666859       -0.15119019815947       -1.55858803847558
H            1.81175031713673        0.39544297600282       -1.99248816529220
