 xtb: 6.7.1 (edcfbbe)
          04052503223D

 19 19  0     0  0            999 V2000
   -3.7675    0.9044   -0.0404 C   0  0  0  0  0  0  0  0  0  0  0  0
   -2.3407    0.9257   -0.0493 O   0  0  0  0  0  0  0  0  0  0  0  0
   -1.7161   -0.2527    0.0331 C   0  0  0  0  0  0  0  0  0  0  0  0
   -2.3243   -1.3077    0.1131 O   0  0  0  0  0  0  0  0  0  0  0  0
   -0.2520   -0.1367    0.0154 C   0  0  0  0  0  0  0  0  0  0  0  0
    0.3891    1.1011   -0.0763 C   0  0  0  0  0  0  0  0  0  0  0  0
    1.7630    1.1692   -0.0909 C   0  0  0  0  0  0  0  0  0  0  0  0
    2.5287    0.0024   -0.0144 C   0  0  0  0  0  0  0  0  0  0  0  0
    1.8907   -1.2350    0.0776 C   0  0  0  0  0  0  0  0  0  0  0  0
    0.5148   -1.2998    0.0921 C   0  0  0  0  0  0  0  0  0  0  0  0
    3.8689    0.1266   -0.0333 O   0  0  0  0  0  0  0  0  0  0  0  0
   -4.0755    1.9407   -0.1368 H   0  0  0  0  0  0  0  0  0  0  0  0
   -4.1293    0.4725    0.8939 H   0  0  0  0  0  0  0  0  0  0  0  0
   -4.1381    0.3049   -0.8732 H   0  0  0  0  0  0  0  0  0  0  0  0
   -0.2023    2.0003   -0.1353 H   0  0  0  0  0  0  0  0  0  0  0  0
    2.2753    2.1150   -0.1612 H   0  0  0  0  0  0  0  0  0  0  0  0
    2.4730   -2.1420    0.1373 H   0  0  0  0  0  0  0  0  0  0  0  0
    0.0045   -2.2484    0.1628 H   0  0  0  0  0  0  0  0  0  0  0  0
    4.3070   -0.7377    0.0238 H   0  0  0  0  0  0  0  0  0  0  0  0
  1  2  1  0  0  0  0
  2  3  1  0  0  0  0
  3  4  2  0  0  0  0
  3  5  1  0  0  0  0
  5  6  4  0  0  0  0
  6  7  4  0  0  0  0
  7  8  4  0  0  0  0
  8  9  4  0  0  0  0
  5 10  4  0  0  0  0
  9 10  4  0  0  0  0
  8 11  1  0  0  0  0
  1 12  1  0  0  0  0
  1 13  1  0  0  0  0
  1 14  1  0  0  0  0
  6 15  1  0  0  0  0
  7 16  1  0  0  0  0
  9 17  1  0  0  0  0
 10 18  1  0  0  0  0
 11 19  1  0  0  0  0
M  END
