19
CONF1
C 2.3976939571 -0.6535274647 -0.1634535011
C 1.0972576501 -0.1192546091 0.4217541784
H 1.1447282619 -0.1732771557 1.5216887888
C 0.7619598295 1.3104992799 -0.0187956778
C -0.7622544097 1.3105647601 0.0186413762
C -1.0983452301 -0.1189931518 -0.4222928471
H -1.1496190709 -0.1720942527 -1.5220455739
O 0.0003620251 -0.9325800491 -0.0028266286
C -2.3967262138 -0.6541593815 0.1668453409
H 2.3516526140 -0.6344866429 -1.2494215996
H 3.2296691178 -0.0423420059 0.1737386734
H 2.5516978968 -1.6796811017 0.1580202556
H 1.2074949195 2.0535949768 0.6371696376
H 1.1168777420 1.4724849413 -1.0375023847
H -1.1170391938 1.4725021031 1.0373919413
H -1.2076564201 2.0539395015 -0.6370710480
H -3.2298945091 -0.0426108571 -0.1665433651
H -2.3468594143 -0.6365559861 1.2526507165
H -2.5518601807 -1.6798656031 -0.1553681935
19
CONF2
C 2.2946094129 -0.3693541517 -0.3886091499
C 1.0627486484 -0.2422079802 0.5084372611
H 1.3082982265 -0.6244687678 1.5075991701
C 0.5202421880 1.1914219625 0.5601914160
C -0.5195884373 1.1910616823 -0.5585292828
C -1.0607961136 -0.2432186517 -0.5080403494
H -1.3012437135 -0.6262758450 -1.5082392866
O -0.0001692534 -1.0528783720 0.0036424109
C -2.2967994623 -0.3705176792 0.3831314734
H 3.1331248391 0.1582176250 0.0563914784
H 2.5535341371 -1.4186522787 -0.5019311591
H 2.0898968584 0.0439176833 -1.3726867005
H 0.0439776225 1.3806640201 1.5219884198
H 1.3069050431 1.9249490518 0.4056276552
H -1.3071851895 1.9234573008 -0.4032751719
H -0.0437887841 1.3818829069 -1.5202351297
H -2.0971376156 0.0443783162 1.3676539194
H -2.5547039104 -1.4200369538 0.4966283381
H -3.1339510130 0.1553432750 -0.0666018029
19
CONF3
C 2.1329228413 -0.5719101364 -0.5960791721
C 1.1636576372 -0.1403727734 0.5064176050
H 1.6148661359 -0.3471065915 1.4827335888
C 0.7382421891 1.3337007709 0.3603770816
C -0.6496011970 1.2631674085 -0.2935209870
C -0.9502574815 -0.2452955876 -0.4083269285
H -0.7520387635 -0.5908187041 -1.4361326012
O -0.0404235191 -0.8935399358 0.4748073411
C -2.3722870227 -0.6210227772 -0.0201580888
H 2.2987078184 -1.6447082886 -0.5375796580
H 1.7257369105 -0.3341723602 -1.5756552986
H 3.0818969988 -0.0586013270 -0.4717254634
H 0.6810125598 1.8084933607 1.3382187730
H 1.4530756764 1.8817490488 -0.2490237592
H -1.3993397123 1.7429827623 0.3336683525
H -0.6660267996 1.7362488904 -1.2727928222
H -2.5651301639 -0.3185064597 1.0058325046
H -2.5008776003 -1.6973024238 -0.0931723719
H -3.0771127385 -0.1287499659 -0.6834966543
