 xtb: 6.7.1 (edcfbbe)
          04062521023D

 27 27  0     0  0            999 V2000
   -3.4237    0.5828    0.0773 C   0  0  0  0  0  0  0  0  0  0  0  0
   -1.9289    0.4938    0.0788 C   0  0  0  0  0  0  0  0  0  0  0  0
   -1.1396    1.4919   -0.2925 C   0  0  0  0  0  0  0  0  0  0  0  0
    0.3553    1.4331   -0.3232 C   0  0  0  0  0  0  0  0  0  0  0  0
    0.8555   -0.0150   -0.2677 C   0  0  0  0  0  0  0  0  0  0  0  0
    0.5666   -0.5005   -1.2067 H   0  0  0  0  0  0  0  0  0  0  0  0
    0.1173   -0.7322    0.8640 C   0  0  0  0  0  0  0  0  0  0  0  0
   -1.3669   -0.8444    0.5054 C   0  0  0  0  0  0  0  0  0  0  0  0
   -1.9279   -1.1939    1.3896 H   0  0  0  0  0  0  0  0  0  0  0  0
   -1.5918   -1.7553   -0.5648 O   0  0  0  0  0  0  0  0  0  0  0  0
    2.3564   -0.0764   -0.1368 C   0  0  0  0  0  0  0  0  0  0  0  0
    3.1169   -0.4012   -1.1714 C   0  0  0  0  0  0  0  0  0  0  0  0
    2.9460    0.2516    1.2015 C   0  0  0  0  0  0  0  0  0  0  0  0
   -3.8097    0.4731    1.0903 H   0  0  0  0  0  0  0  0  0  0  0  0
   -3.8326   -0.2258   -0.5267 H   0  0  0  0  0  0  0  0  0  0  0  0
   -3.7569    1.5343   -0.3269 H   0  0  0  0  0  0  0  0  0  0  0  0
   -1.5774    2.4366   -0.5871 H   0  0  0  0  0  0  0  0  0  0  0  0
    0.7228    1.9176   -1.2308 H   0  0  0  0  0  0  0  0  0  0  0  0
    0.7466    2.0006    0.5271 H   0  0  0  0  0  0  0  0  0  0  0  0
    0.5347   -1.7301    1.0167 H   0  0  0  0  0  0  0  0  0  0  0  0
    0.2073   -0.1695    1.7934 H   0  0  0  0  0  0  0  0  0  0  0  0
   -1.2614   -2.6271   -0.3101 H   0  0  0  0  0  0  0  0  0  0  0  0
    4.1914   -0.4330   -1.1024 H   0  0  0  0  0  0  0  0  0  0  0  0
    2.6964   -0.6482   -2.1319 H   0  0  0  0  0  0  0  0  0  0  0  0
    2.6992   -0.5259    1.9227 H   0  0  0  0  0  0  0  0  0  0  0  0
    4.0278    0.3270    1.1335 H   0  0  0  0  0  0  0  0  0  0  0  0
    2.5527    1.1930    1.5790 H   0  0  0  0  0  0  0  0  0  0  0  0
  1  2  1  0  0  0  0
  2  3  2  0  0  0  0
  3  4  1  0  0  0  0
  4  5  1  0  0  0  0
  5  6  1  0  0  0  0
  5  7  1  0  0  0  0
  2  8  1  0  0  0  0
  7  8  1  0  0  0  0
  8  9  1  0  0  0  0
  8 10  1  0  0  0  0
  5 11  1  0  0  0  0
 11 12  2  0  0  0  0
 11 13  1  0  0  0  0
  1 14  1  0  0  0  0
  1 15  1  0  0  0  0
  1 16  1  0  0  0  0
  3 17  1  0  0  0  0
  4 18  1  0  0  0  0
  4 19  1  0  0  0  0
  7 20  1  0  0  0  0
  7 21  1  0  0  0  0
 10 22  1  0  0  0  0
 12 23  1  0  0  0  0
 12 24  1  0  0  0  0
 13 25  1  0  0  0  0
 13 26  1  0  0  0  0
 13 27  1  0  0  0  0
M  END
