16
 xtb: 6.7.1 (edcfbbe)
C            1.26237039710302        1.47634588878450       -0.21568252554215
C            0.71726896873005        0.06968914888654       -0.41772884511473
C            1.50728518255523       -0.96505379791558        0.40764597903022
C           -0.74321677442260       -0.05216033528686       -0.04855668594127
O           -1.32757245529934        0.81773094930175        0.59170803049764
C           -1.47006345872142       -1.30036561697219       -0.47142785683952
H            1.23389474591703        1.75857610384448        0.84137187230506
H            2.30217429910496        1.52492459208724       -0.55177594797994
H            0.68417444907359        2.21376470674806       -0.78020416200727
H            0.79438139486348       -0.21885586880574       -1.47538269783186
H            1.13504396247032       -1.98245991642881        0.25903491048629
H            1.44525365986191       -0.72450218883510        1.47427920970913
H            2.55977406358949       -0.94055957433402        0.11102227785989
H           -0.85102700674158       -1.97354439486128       -1.06593956091347
H           -2.35178805438309       -1.00716790274041       -1.05097542170673
H           -1.82929499552306       -1.82618282023768        0.41975723037649
