 xtb: 6.7.1 (edcfbbe)
          04042516063D

 13 12  0     0  0            999 V2000
   -1.6832    0.6171   -0.6273 C   0  0  0  0  0  0  0  0  0  0  0  0
   -1.1986   -0.0801    0.6379 C   0  0  0  0  0  0  0  0  0  0  0  0
    0.0374   -0.9482    0.3719 C   0  0  0  0  0  0  0  0  0  0  0  0
    1.1787   -0.1481   -0.0239 C   0  0  0  0  0  0  0  0  0  0  0  0
    2.1093    0.5334   -0.3439 C   0  0  0  0  0  0  0  0  0  0  0  0
   -1.9651   -0.1136   -1.3826 H   0  0  0  0  0  0  0  0  0  0  0  0
   -2.5475    1.2408   -0.4122 H   0  0  0  0  0  0  0  0  0  0  0  0
   -0.8946    1.2456   -1.0358 H   0  0  0  0  0  0  0  0  0  0  0  0
   -0.9549    0.6677    1.3958 H   0  0  0  0  0  0  0  0  0  0  0  0
   -1.9938   -0.7154    1.0334 H   0  0  0  0  0  0  0  0  0  0  0  0
   -0.1816   -1.6671   -0.4224 H   0  0  0  0  0  0  0  0  0  0  0  0
    0.2998   -1.5044    1.2758 H   0  0  0  0  0  0  0  0  0  0  0  0
    2.9312    1.1207   -0.6256 H   0  0  0  0  0  0  0  0  0  0  0  0
  1  2  1  0  0  0  0
  2  3  1  0  0  0  0
  3  4  1  0  0  0  0
  4  5  3  0  0  0  0
  1  6  1  0  0  0  0
  1  7  1  0  0  0  0
  1  8  1  0  0  0  0
  2  9  1  0  0  0  0
  2 10  1  0  0  0  0
  3 11  1  0  0  0  0
  3 12  1  0  0  0  0
  5 13  1  0  0  0  0
M  END
