16
 xtb: 6.7.1 (edcfbbe)
C           -2.49967702504647       -1.18666598693157       -0.01261888582540
C           -1.72047365027080        0.08993253633600        0.00113191766770
O           -2.27730869765097        1.18349558113367        0.01050372518452
C           -0.22287313268669        0.01862393427897       -0.00033595826926
C            0.52374627053524        1.19842226570857       -0.00621250924667
C            1.90746473775845        1.11623509328174       -0.00622244305361
N            2.58412724998266       -0.04364781180546       -0.00003987103234
C            1.85858906454978       -1.16989728471012        0.00628499506537
C            0.46893168927187       -1.19315091381394        0.00574059024065
H           -3.56732713642418       -0.96757300070674       -0.02001506767143
H           -2.25035011183645       -1.79022206527735        0.86735452356894
H           -2.23558003951962       -1.78381950890679       -0.89250233752220
H            0.03147551609882        2.16406742156358       -0.01099811350988
H            2.50563258378800        2.02408369088939       -0.01103215934314
H            2.41455902382566       -2.10414328214070        0.01110165393502
H           -0.04730177146712       -2.14579922375802        0.01084506199997
