 xtb: 6.7.1 (edcfbbe)
          04042516093D

 13 12  0     0  0            999 V2000
    1.3339    1.2366    0.2082 C   0  0  0  0  0  0  0  0  0  0  0  0
    0.4905    0.1187   -0.4109 C   0  0  0  0  0  0  0  0  0  0  0  0
    0.9141   -1.2625    0.0786 C   0  0  0  0  0  0  0  0  0  0  0  0
   -0.9640    0.3757   -0.1593 C   0  0  0  0  0  0  0  0  0  0  0  0
   -1.7732   -0.4336    0.2237 O   0  0  0  0  0  0  0  0  0  0  0  0
    1.2341    1.2270    1.2908 H   0  0  0  0  0  0  0  0  0  0  0  0
    1.0196    2.2086   -0.1625 H   0  0  0  0  0  0  0  0  0  0  0  0
    2.3801    1.0893   -0.0429 H   0  0  0  0  0  0  0  0  0  0  0  0
    0.6049    0.1686   -1.5018 H   0  0  0  0  0  0  0  0  0  0  0  0
    1.9446   -1.4643   -0.1979 H   0  0  0  0  0  0  0  0  0  0  0  0
    0.2738   -2.0268   -0.3548 H   0  0  0  0  0  0  0  0  0  0  0  0
    0.8219   -1.3200    1.1607 H   0  0  0  0  0  0  0  0  0  0  0  0
   -1.2770    1.4169   -0.3650 H   0  0  0  0  0  0  0  0  0  0  0  0
  1  2  1  0  0  0  0
  2  3  1  0  0  0  0
  2  4  1  0  0  0  0
  4  5  2  0  0  0  0
  1  6  1  0  0  0  0
  1  7  1  0  0  0  0
  1  8  1  0  0  0  0
  2  9  1  0  0  0  0
  3 10  1  0  0  0  0
  3 11  1  0  0  0  0
  3 12  1  0  0  0  0
  4 13  1  0  0  0  0
M  END
