11
CONF1
C -3.6538245697 -0.0267928525 0.0000208731
C -2.2231877900 0.5038157132 -0.0000252567
C -1.2448347701 -0.6522175540 -0.0000150669
I 0.8238371442 0.0225612704 0.0000008715
H -4.3562309941 0.8016366136 -0.0000175104
H -3.8369235856 -0.6351030015 -0.8825154494
H -3.8367540180 -0.6348583859 0.8827375242
H -2.0626468423 1.1263818842 0.8825318099
H -2.0627929608 1.1261263424 -0.8827663224
H -1.3525214387 -1.2686744891 -0.8886467769
H -1.3523585216 -1.2684390447 0.8887987702
11
CONF2
C -2.8491455199 0.2529121037 0.3588916104
C -2.1902991462 -0.0629977215 -0.9768216915
C -0.9571994546 -0.9307080298 -0.8394857163
I 0.6914051288 0.0842816833 0.1623368746
H -2.1730595916 0.8190312668 0.9965346490
H -3.7466901967 0.8453769319 0.2050975880
H -3.1240795086 -0.6634724626 0.8768256013
H -1.9382317092 0.8651135535 -1.4939696244
H -2.8952790437 -0.6131531079 -1.6065234133
H -0.5614854097 -1.2208608155 -1.8088508792
H -1.1556367407 -1.8161140893 -0.2413571058
