26
 xtb: 6.7.1 (edcfbbe)
C           -4.35555049381854       -1.35299584367079       -0.34259465075324
N           -3.30012833153440       -0.78246352167178        0.48461619893295
C           -2.22604901900796       -0.21073868550768       -0.07054761939099
O           -1.96635755391357       -0.16704112165290       -1.26742814049017
O           -1.41048225963481        0.34637473500332        0.90204340904414
C           -0.18848225521205        0.86690953518271        0.45717678262061
C           -0.06327780556958        2.22317574938189        0.31718984791793
C            1.18312299010148        2.76909158014428       -0.05573968150505
C            2.26367875110236        1.95088366918497       -0.28138086085282
C            2.14790044975941        0.54596198119462       -0.14213531434827
C            0.89058199606292       -0.02341126741739        0.23988886124532
C            0.77657406505703       -1.42662489465041        0.38451828891837
C            1.86409734019844       -2.23651979383244        0.15575280079084
C            3.10587668478140       -1.68194866446730       -0.22297319662725
C            3.24433888197257       -0.32218292696891       -0.36716252816208
H           -4.88185509351560       -0.58044008594109       -0.91352059070325
H           -5.06831204502138       -1.85465154650642        0.31268058017144
H           -3.94207400032929       -2.08755686733584       -1.03874162468077
H           -3.43290552989253       -0.69840311646694        1.48098243684241
H           -0.92140154981832        2.86232817740613        0.49553143735761
H            1.27791933205019        3.84446663505278       -0.16374484042656
H            3.22346791584889        2.36934825258004       -0.56913678088993
H           -0.17335167952732       -1.85997162617570        0.68046150488825
H            1.76996424147176       -3.31179252576643        0.26859610178788
H            3.95343835842428       -2.33670116406802       -0.39850051316659
H            4.19798658868941        0.10989376717556       -0.65644787830464
