 xtb: 6.7.1 (edcfbbe)
          04042513273D

 12 11  0     0  0            999 V2000
   -2.0105   -0.1796    0.4721 C   0  0  0  0  0  0  0  0  0  0  0  0
   -0.9106    0.0586   -0.5601 C   0  0  0  0  0  0  0  0  0  0  0  0
    0.4524    0.0936    0.1059 C   0  0  0  0  0  0  0  0  0  0  0  0
    0.8275   -0.7808    0.8821 O   0  0  0  0  0  0  0  0  0  0  0  0
    1.2297    1.1366   -0.2126 N   0  0  0  0  0  0  0  0  0  0  0  0
   -2.9671   -0.3316   -0.0197 H   0  0  0  0  0  0  0  0  0  0  0  0
   -1.7719   -1.0606    1.0635 H   0  0  0  0  0  0  0  0  0  0  0  0
   -2.0923    0.6709    1.1448 H   0  0  0  0  0  0  0  0  0  0  0  0
   -1.0931    0.9830   -1.1058 H   0  0  0  0  0  0  0  0  0  0  0  0
   -0.8993   -0.7720   -1.2691 H   0  0  0  0  0  0  0  0  0  0  0  0
    0.9236    1.8509   -0.8498 H   0  0  0  0  0  0  0  0  0  0  0  0
    2.1502    1.1996    0.1924 H   0  0  0  0  0  0  0  0  0  0  0  0
  1  2  1  0  0  0  0
  2  3  1  0  0  0  0
  3  4  2  0  0  0  0
  3  5  4  0  0  0  0
  1  6  1  0  0  0  0
  1  7  1  0  0  0  0
  1  8  1  0  0  0  0
  2  9  1  0  0  0  0
  2 10  1  0  0  0  0
  5 11  1  0  0  0  0
  5 12  1  0  0  0  0
M  END
