 xtb: 6.7.1 (edcfbbe)
          04062518003D

 24 24  0     0  0            999 V2000
   -1.7314   -1.0364   -0.7114 C   0  0  0  0  0  0  0  0  0  0  0  0
   -1.0543   -0.5017    0.5583 C   0  0  0  0  0  0  0  0  0  0  0  0
   -1.7480   -0.6179    1.3993 H   0  0  0  0  0  0  0  0  0  0  0  0
   -0.7341    0.9946    0.4357 C   0  0  0  0  0  0  0  0  0  0  0  0
   -1.6164    1.4620   -0.0197 H   0  0  0  0  0  0  0  0  0  0  0  0
    0.5078    1.2497   -0.4482 C   0  0  0  0  0  0  0  0  0  0  0  0
    0.8449    2.2848   -0.2738 H   0  0  0  0  0  0  0  0  0  0  0  0
    1.6654    0.3486    0.0154 C   0  0  0  0  0  0  0  0  0  0  0  0
    2.4571    0.3781   -0.7399 H   0  0  0  0  0  0  0  0  0  0  0  0
    1.2434   -1.1242    0.1757 C   0  0  0  0  0  0  0  0  0  0  0  0
    2.0137   -1.6141    0.7930 H   0  0  0  0  0  0  0  0  0  0  0  0
    0.0697   -1.2827    0.9370 O   0  0  0  0  0  0  0  0  0  0  0  0
    1.1602   -1.7163   -1.0814 O   0  0  0  0  0  0  0  0  0  0  0  0
    2.2192    0.8300    1.2117 O   0  0  0  0  0  0  0  0  0  0  0  0
    0.2698    1.0372   -1.8145 O   0  0  0  0  0  0  0  0  0  0  0  0
   -0.5116    1.4964    1.7392 O   0  0  0  0  0  0  0  0  0  0  0  0
   -2.9541   -0.3500   -0.8758 O   0  0  0  0  0  0  0  0  0  0  0  0
   -1.9017   -2.1106   -0.5702 H   0  0  0  0  0  0  0  0  0  0  0  0
   -1.0702   -0.8819   -1.5708 H   0  0  0  0  0  0  0  0  0  0  0  0
    1.0813   -2.6780   -0.9896 H   0  0  0  0  0  0  0  0  0  0  0  0
    1.5096    0.8800    1.8773 H   0  0  0  0  0  0  0  0  0  0  0  0
   -0.2978    1.7425   -2.1586 H   0  0  0  0  0  0  0  0  0  0  0  0
   -0.6509    2.4538    1.7537 H   0  0  0  0  0  0  0  0  0  0  0  0
   -3.4102   -0.7057   -1.6512 H   0  0  0  0  0  0  0  0  0  0  0  0
  1  2  1  0  0  0  0
  2  3  1  0  0  0  0
  2  4  1  0  0  0  0
  4  5  1  0  0  0  0
  4  6  1  0  0  0  0
  6  7  1  0  0  0  0
  6  8  1  0  0  0  0
  8  9  1  0  0  0  0
  8 10  1  0  0  0  0
 10 11  1  0  0  0  0
  2 12  1  0  0  0  0
 10 12  1  0  0  0  0
 10 13  1  0  0  0  0
  8 14  1  0  0  0  0
  6 15  1  0  0  0  0
  4 16  1  0  0  0  0
  1 17  1  0  0  0  0
  1 18  1  0  0  0  0
  1 19  1  0  0  0  0
 13 20  1  0  0  0  0
 14 21  1  0  0  0  0
 15 22  1  0  0  0  0
 16 23  1  0  0  0  0
 17 24  1  0  0  0  0
M  END
