 xtb: 6.7.1 (edcfbbe)
          04062517243D

 26 27  0     0  0            999 V2000
   -4.3675   -1.3577   -0.3187 C   0  0  0  0  0  0  0  0  0  0  0  0
   -3.3390   -0.6818    0.4396 N   0  0  0  0  0  0  0  0  0  0  0  0
   -2.2034   -0.2388   -0.1057 C   0  0  0  0  0  0  0  0  0  0  0  0
   -1.8738   -0.3553   -1.2718 O   0  0  0  0  0  0  0  0  0  0  0  0
   -1.4418    0.3829    0.8357 O   0  0  0  0  0  0  0  0  0  0  0  0
   -0.1922    0.8763    0.4367 C   0  0  0  0  0  0  0  0  0  0  0  0
   -0.0413    2.2280    0.2849 C   0  0  0  0  0  0  0  0  0  0  0  0
    1.2067    2.7587   -0.0720 C   0  0  0  0  0  0  0  0  0  0  0  0
    2.2732    1.9317   -0.2831 C   0  0  0  0  0  0  0  0  0  0  0  0
    2.1442    0.5348   -0.1350 C   0  0  0  0  0  0  0  0  0  0  0  0
    0.8892   -0.0162    0.2393 C   0  0  0  0  0  0  0  0  0  0  0  0
    0.7737   -1.4117    0.4034 C   0  0  0  0  0  0  0  0  0  0  0  0
    1.8481   -2.2292    0.1898 C   0  0  0  0  0  0  0  0  0  0  0  0
    3.0862   -1.6896   -0.1906 C   0  0  0  0  0  0  0  0  0  0  0  0
    3.2312   -0.3395   -0.3457 C   0  0  0  0  0  0  0  0  0  0  0  0
   -5.2936   -0.7846   -0.2940 H   0  0  0  0  0  0  0  0  0  0  0  0
   -4.5423   -2.3522    0.0897 H   0  0  0  0  0  0  0  0  0  0  0  0
   -4.0212   -1.4429   -1.3468 H   0  0  0  0  0  0  0  0  0  0  0  0
   -3.4943   -0.5029    1.4202 H   0  0  0  0  0  0  0  0  0  0  0  0
   -0.8888    2.8770    0.4417 H   0  0  0  0  0  0  0  0  0  0  0  0
    1.3070    3.8265   -0.1854 H   0  0  0  0  0  0  0  0  0  0  0  0
    3.2333    2.3345   -0.5675 H   0  0  0  0  0  0  0  0  0  0  0  0
   -0.1786   -1.8273    0.6993 H   0  0  0  0  0  0  0  0  0  0  0  0
    1.7486   -3.2966    0.3148 H   0  0  0  0  0  0  0  0  0  0  0  0
    3.9225   -2.3512   -0.3564 H   0  0  0  0  0  0  0  0  0  0  0  0
    4.1826    0.0822   -0.6331 H   0  0  0  0  0  0  0  0  0  0  0  0
  1  2  1  0  0  0  0
  2  3  4  0  0  0  0
  3  4  2  0  0  0  0
  3  5  1  0  0  0  0
  5  6  1  0  0  0  0
  6  7  2  0  0  0  0
  7  8  4  0  0  0  0
  8  9  2  0  0  0  0
  9 10  4  0  0  0  0
  6 11  4  0  0  0  0
 10 11  4  0  0  0  0
 11 12  4  0  0  0  0
 12 13  2  0  0  0  0
 13 14  4  0  0  0  0
 10 15  4  0  0  0  0
 14 15  2  0  0  0  0
  1 16  1  0  0  0  0
  1 17  1  0  0  0  0
  1 18  1  0  0  0  0
  2 19  1  0  0  0  0
  7 20  1  0  0  0  0
  8 21  1  0  0  0  0
  9 22  1  0  0  0  0
 12 23  1  0  0  0  0
 13 24  1  0  0  0  0
 14 25  1  0  0  0  0
 15 26  1  0  0  0  0
M  END
