 xtb: 6.7.1 (edcfbbe)
          04062520053D

 27 27  0     0  0            999 V2000
   -2.7794    1.2579    0.8183 C   0  0  0  0  0  0  0  0  0  0  0  0
   -1.6676    0.5658    0.0967 C   0  0  0  0  0  0  0  0  0  0  0  0
   -0.8341    1.1516   -0.7541 C   0  0  0  0  0  0  0  0  0  0  0  0
    0.2542    0.3549   -1.3951 C   0  0  0  0  0  0  0  0  0  0  0  0
    1.0008   -0.5317   -0.3699 C   0  0  0  0  0  0  0  0  0  0  0  0
    1.4428   -1.3599   -0.9293 H   0  0  0  0  0  0  0  0  0  0  0  0
    0.0501   -1.1187    0.6945 C   0  0  0  0  0  0  0  0  0  0  0  0
   -1.4359   -0.9001    0.3801 C   0  0  0  0  0  0  0  0  0  0  0  0
   -2.0258   -1.2126    1.2575 H   0  0  0  0  0  0  0  0  0  0  0  0
   -1.7814   -1.7355   -0.7193 O   0  0  0  0  0  0  0  0  0  0  0  0
    2.1247    0.2529    0.2742 C   0  0  0  0  0  0  0  0  0  0  0  0
    1.9035    1.3412    0.9946 C   0  0  0  0  0  0  0  0  0  0  0  0
    3.5039   -0.2765    0.0278 C   0  0  0  0  0  0  0  0  0  0  0  0
   -3.7346    0.7772    0.6115 H   0  0  0  0  0  0  0  0  0  0  0  0
   -2.8386    2.3007    0.5186 H   0  0  0  0  0  0  0  0  0  0  0  0
   -2.6114    1.2096    1.8942 H   0  0  0  0  0  0  0  0  0  0  0  0
   -0.9264    2.1977   -1.0076 H   0  0  0  0  0  0  0  0  0  0  0  0
   -0.1901   -0.3034   -2.1460 H   0  0  0  0  0  0  0  0  0  0  0  0
    0.9693    1.0081   -1.8961 H   0  0  0  0  0  0  0  0  0  0  0  0
    0.2183   -2.1917    0.7906 H   0  0  0  0  0  0  0  0  0  0  0  0
    0.2494   -0.6541    1.6608 H   0  0  0  0  0  0  0  0  0  0  0  0
   -2.7042   -1.5789   -0.9562 H   0  0  0  0  0  0  0  0  0  0  0  0
    2.7085    1.8990    1.4425 H   0  0  0  0  0  0  0  0  0  0  0  0
    0.9091    1.7207    1.1586 H   0  0  0  0  0  0  0  0  0  0  0  0
    3.7076   -0.3040   -1.0420 H   0  0  0  0  0  0  0  0  0  0  0  0
    4.2544    0.3418    0.5127 H   0  0  0  0  0  0  0  0  0  0  0  0
    3.5853   -1.2941    0.4074 H   0  0  0  0  0  0  0  0  0  0  0  0
  1  2  1  0  0  0  0
  2  3  2  0  0  0  0
  3  4  1  0  0  0  0
  4  5  1  0  0  0  0
  5  6  1  0  0  0  0
  5  7  1  0  0  0  0
  2  8  1  0  0  0  0
  7  8  1  0  0  0  0
  8  9  1  0  0  0  0
  8 10  1  0  0  0  0
  5 11  1  0  0  0  0
 11 12  2  0  0  0  0
 11 13  1  0  0  0  0
  1 14  1  0  0  0  0
  1 15  1  0  0  0  0
  1 16  1  0  0  0  0
  3 17  1  0  0  0  0
  4 18  1  0  0  0  0
  4 19  1  0  0  0  0
  7 20  1  0  0  0  0
  7 21  1  0  0  0  0
 10 22  1  0  0  0  0
 12 23  1  0  0  0  0
 12 24  1  0  0  0  0
 13 25  1  0  0  0  0
 13 26  1  0  0  0  0
 13 27  1  0  0  0  0
M  END
