 xtb: 6.7.1 (edcfbbe)
          04062518003D

 24 24  0     0  0            999 V2000
   -2.4648   -0.8554   -0.1582 C   0  0  0  0  0  0  0  0  0  0  0  0
   -1.1109   -0.5977    0.5235 C   0  0  0  0  0  0  0  0  0  0  0  0
   -1.1399   -1.0024    1.5488 H   0  0  0  0  0  0  0  0  0  0  0  0
   -0.7554    0.9065    0.6067 C   0  0  0  0  0  0  0  0  0  0  0  0
   -1.6393    1.4944    0.3323 H   0  0  0  0  0  0  0  0  0  0  0  0
    0.3636    1.2406   -0.3965 C   0  0  0  0  0  0  0  0  0  0  0  0
    0.6441    2.2918   -0.2385 H   0  0  0  0  0  0  0  0  0  0  0  0
    1.6093    0.3792   -0.0897 C   0  0  0  0  0  0  0  0  0  0  0  0
    2.2604    0.3496   -0.9703 H   0  0  0  0  0  0  0  0  0  0  0  0
    1.1773   -1.0766    0.2437 C   0  0  0  0  0  0  0  0  0  0  0  0
    1.2369   -1.2141    1.3377 H   0  0  0  0  0  0  0  0  0  0  0  0
   -0.1334   -1.3223   -0.2056 O   0  0  0  0  0  0  0  0  0  0  0  0
    2.0075   -2.0308   -0.3160 O   0  0  0  0  0  0  0  0  0  0  0  0
    2.3865    0.9467    0.9307 O   0  0  0  0  0  0  0  0  0  0  0  0
   -0.1276    1.0371   -1.6954 O   0  0  0  0  0  0  0  0  0  0  0  0
   -0.2779    1.2641    1.8846 O   0  0  0  0  0  0  0  0  0  0  0  0
   -2.7588    0.0340   -1.2022 O   0  0  0  0  0  0  0  0  0  0  0  0
   -3.2715   -0.7388    0.5681 H   0  0  0  0  0  0  0  0  0  0  0  0
   -2.4533   -1.8919   -0.5198 H   0  0  0  0  0  0  0  0  0  0  0  0
    1.7442   -2.1735   -1.2388 H   0  0  0  0  0  0  0  0  0  0  0  0
    1.8125    1.1312    1.6928 H   0  0  0  0  0  0  0  0  0  0  0  0
    0.4735    1.4352   -2.3404 H   0  0  0  0  0  0  0  0  0  0  0  0
   -1.0171    1.3792    2.4975 H   0  0  0  0  0  0  0  0  0  0  0  0
   -1.9811    0.1114   -1.7789 H   0  0  0  0  0  0  0  0  0  0  0  0
  1  2  1  0  0  0  0
  2  3  1  0  0  0  0
  2  4  1  0  0  0  0
  4  5  1  0  0  0  0
  4  6  1  0  0  0  0
  6  7  1  0  0  0  0
  6  8  1  0  0  0  0
  8  9  1  0  0  0  0
  8 10  1  0  0  0  0
 10 11  1  0  0  0  0
  2 12  1  0  0  0  0
 10 12  1  0  0  0  0
 10 13  1  0  0  0  0
  8 14  1  0  0  0  0
  6 15  1  0  0  0  0
  4 16  1  0  0  0  0
  1 17  1  0  0  0  0
  1 18  1  0  0  0  0
  1 19  1  0  0  0  0
 13 20  1  0  0  0  0
 14 21  1  0  0  0  0
 15 22  1  0  0  0  0
 16 23  1  0  0  0  0
 17 24  1  0  0  0  0
M  END
