16
 xtb: 6.7.1 (edcfbbe)
C            1.25759310872013        1.49207920676409       -0.15169279859222
C            0.70040743174019        0.10535429474410       -0.44255329068294
C            1.50248063264595       -0.99093208130851        0.28119153905188
C           -0.76786549115836       -0.01614223396900       -0.09013459386714
O           -1.38885474458159        0.90708718641163        0.42873206660944
C           -1.44253385961984       -1.32791820888708       -0.37774953684324
H            1.22905476140601        1.70664344622140        0.92151714941395
H            2.29862366100785        1.55136096484421       -0.48212256303056
H            0.68899127019397        2.27021903310972       -0.66871883976729
H            0.75977118502925       -0.09934303250069       -1.52199566268039
H            1.17698595462466       -1.99483339667001       -0.00246438175968
H            1.40063982335022       -0.88582452793365        1.36670972735652
H            2.56191554164847       -0.89433285198309        0.02697878165386
H           -2.51865465174838       -1.18141857952964       -0.48839869096809
H           -1.27438554545791       -1.99543436021302        0.47690987285490
H           -1.02516522210949       -1.81725972857233       -1.26130794287221
