 xtb: 6.7.1 (edcfbbe)
          04042519493D

 16 16  0     0  0            999 V2000
   -2.6948   -0.9669    0.0011 C   0  0  0  0  0  0  0  0  0  0  0  0
   -1.8220    0.6280   -0.0005 S   0  0  0  0  0  0  0  0  0  0  0  0
   -0.1073    0.1893   -0.0001 C   0  0  0  0  0  0  0  0  0  0  0  0
    0.7961    1.2492    0.0002 C   0  0  0  0  0  0  0  0  0  0  0  0
    2.1540    1.0016    0.0005 C   0  0  0  0  0  0  0  0  0  0  0  0
    2.6248   -0.3028    0.0004 C   0  0  0  0  0  0  0  0  0  0  0  0
    1.7249   -1.3536   -0.0004 C   0  0  0  0  0  0  0  0  0  0  0  0
    0.3604   -1.1166   -0.0006 C   0  0  0  0  0  0  0  0  0  0  0  0
   -2.4441   -1.5206    0.9002 H   0  0  0  0  0  0  0  0  0  0  0  0
   -2.4453   -1.5219   -0.8975 H   0  0  0  0  0  0  0  0  0  0  0  0
   -3.7499   -0.7138    0.0016 H   0  0  0  0  0  0  0  0  0  0  0  0
    0.4176    2.2605   -0.0001 H   0  0  0  0  0  0  0  0  0  0  0  0
    2.8468    1.8293    0.0003 H   0  0  0  0  0  0  0  0  0  0  0  0
    3.6862   -0.4967    0.0006 H   0  0  0  0  0  0  0  0  0  0  0  0
    2.0817   -2.3726   -0.0009 H   0  0  0  0  0  0  0  0  0  0  0  0
   -0.3206   -1.9519   -0.0016 H   0  0  0  0  0  0  0  0  0  0  0  0
  1  2  1  0  0  0  0
  2  3  1  0  0  0  0
  3  4  4  0  0  0  0
  4  5  4  0  0  0  0
  5  6  4  0  0  0  0
  6  7  4  0  0  0  0
  3  8  4  0  0  0  0
  7  8  4  0  0  0  0
  1  9  1  0  0  0  0
  1 10  1  0  0  0  0
  1 11  1  0  0  0  0
  4 12  1  0  0  0  0
  5 13  1  0  0  0  0
  6 14  1  0  0  0  0
  7 15  1  0  0  0  0
  8 16  1  0  0  0  0
M  END
