 xtb: 6.7.1 (edcfbbe)
          04032521473D

 15 15  0     0  0            999 V2000
   -0.4649   -1.3737   -0.0004 C   0  0  0  0  0  0  0  0  0  0  0  0
    0.2597   -0.2265   -0.0002 C   0  0  0  0  0  0  0  0  0  0  0  0
   -0.4098    1.0701    0.0006 C   0  0  0  0  0  0  0  0  0  0  0  0
    0.1444    2.1522    0.0014 O   0  0  0  0  0  0  0  0  0  0  0  0
   -1.7886    0.9711    0.0004 N   0  0  0  0  0  0  0  0  0  0  0  0
   -2.5418   -0.1755    0.0001 C   0  0  0  0  0  0  0  0  0  0  0  0
   -3.7516   -0.1735    0.0001 O   0  0  0  0  0  0  0  0  0  0  0  0
   -1.8082   -1.3476   -0.0003 N   0  0  0  0  0  0  0  0  0  0  0  0
    1.7529   -0.2186   -0.0001 C   0  0  0  0  0  0  0  0  0  0  0  0
    2.2741   -1.4586   -0.0045 F   0  0  0  0  0  0  0  0  0  0  0  0
    2.2750    0.4031   -1.0733 F   0  0  0  0  0  0  0  0  0  0  0  0
    2.2746    0.3951    1.0782 F   0  0  0  0  0  0  0  0  0  0  0  0
    0.0126   -2.3440   -0.0008 H   0  0  0  0  0  0  0  0  0  0  0  0
   -2.3040    1.8481    0.0008 H   0  0  0  0  0  0  0  0  0  0  0  0
   -2.3433   -2.2118   -0.0004 H   0  0  0  0  0  0  0  0  0  0  0  0
  1  2  2  0  0  0  0
  2  3  1  0  0  0  0
  3  4  2  0  0  0  0
  3  5  1  0  0  0  0
  5  6  1  0  0  0  0
  6  7  2  0  0  0  0
  1  8  4  0  0  0  0
  6  8  1  0  0  0  0
  2  9  1  0  0  0  0
  9 10  1  0  0  0  0
  9 11  1  0  0  0  0
  9 12  1  0  0  0  0
  1 13  1  0  0  0  0
  5 14  1  0  0  0  0
  8 15  1  0  0  0  0
M  END
