12
CONF2
C -1.7190375469 -0.5657619188 -0.6428137056
C -1.1979454577 0.0543964645 0.6476683777
C 0.0494649603 0.9167496740 0.4020076156
C 1.1648263176 0.1224592214 -0.0284431634
N 2.0564850276 -0.5161796663 -0.3609541896
H -2.5957243055 -1.1757541038 -0.4414941540
H -1.9948322271 0.2071187824 -1.3570325185
H -0.9580730637 -1.1972245951 -1.0973626280
H -1.9696144084 0.6871703797 1.0882398820
H -0.9563622670 -0.7342223793 1.3630529091
H 0.3419437292 1.4321864293 1.3201501652
H -0.1555178775 1.6638996431 -0.3688908931
12
CONF1
C -2.4131904816 0.0129777375 -0.0002677973
C -0.9869738441 -0.5223706373 0.0002854625
C 0.0277130380 0.6307063186 0.0001592969
C 1.3749026284 0.1390531689 0.0000550980
N 2.4454818529 -0.2700190203 -0.0002070424
H -2.5944185812 0.6211392879 -0.8833795059
H -3.1216574034 -0.8109258542 -0.0000193329
H -2.5947870074 0.6220131691 0.8821658226
H -0.8249793840 -1.1449791726 0.8824647843
H -0.8245331233 -1.1455437242 -0.8814127274
H -0.1098647364 1.2540432735 0.8874363759
H -0.1100299086 1.2539756918 -0.8871435359
