 xtb: 6.7.1 (edcfbbe)
          04062518003D

 24 24  0     0  0            999 V2000
   -2.5048   -1.0647    0.2779 C   0  0  0  0  0  0  0  0  0  0  0  0
   -1.0733   -0.5611    0.5633 C   0  0  0  0  0  0  0  0  0  0  0  0
   -0.9330   -0.5000    1.6533 H   0  0  0  0  0  0  0  0  0  0  0  0
   -0.8095    0.8236   -0.0447 C   0  0  0  0  0  0  0  0  0  0  0  0
   -0.9417    0.7475   -1.1367 H   0  0  0  0  0  0  0  0  0  0  0  0
    0.6437    1.2367    0.2455 C   0  0  0  0  0  0  0  0  0  0  0  0
    0.7738    1.3245    1.3319 H   0  0  0  0  0  0  0  0  0  0  0  0
    1.5863    0.1561   -0.3056 C   0  0  0  0  0  0  0  0  0  0  0  0
    1.4545    0.0813   -1.3920 H   0  0  0  0  0  0  0  0  0  0  0  0
    1.1919   -1.2033    0.3251 C   0  0  0  0  0  0  0  0  0  0  0  0
    1.3334   -1.1483    1.4192 H   0  0  0  0  0  0  0  0  0  0  0  0
   -0.1565   -1.4987    0.0294 O   0  0  0  0  0  0  0  0  0  0  0  0
    1.9772   -2.2485   -0.1063 O   0  0  0  0  0  0  0  0  0  0  0  0
    2.9405    0.4607   -0.1225 O   0  0  0  0  0  0  0  0  0  0  0  0
    0.9090    2.5222   -0.2593 O   0  0  0  0  0  0  0  0  0  0  0  0
   -1.7260    1.7425    0.4937 O   0  0  0  0  0  0  0  0  0  0  0  0
   -3.0604   -0.5840   -0.9163 O   0  0  0  0  0  0  0  0  0  0  0  0
   -3.1408   -0.8035    1.1289 H   0  0  0  0  0  0  0  0  0  0  0  0
   -2.4550   -2.1508    0.1797 H   0  0  0  0  0  0  0  0  0  0  0  0
    1.7717   -2.4552   -1.0316 H   0  0  0  0  0  0  0  0  0  0  0  0
    3.1588    0.4899    0.8198 H   0  0  0  0  0  0  0  0  0  0  0  0
    1.1126    2.4758   -1.2046 H   0  0  0  0  0  0  0  0  0  0  0  0
   -1.3674    2.6363    0.3704 H   0  0  0  0  0  0  0  0  0  0  0  0
   -3.2910    0.3492   -0.7957 H   0  0  0  0  0  0  0  0  0  0  0  0
  1  2  1  0  0  0  0
  2  3  1  0  0  0  0
  2  4  1  0  0  0  0
  4  5  1  0  0  0  0
  4  6  1  0  0  0  0
  6  7  1  0  0  0  0
  6  8  1  0  0  0  0
  8  9  1  0  0  0  0
  8 10  1  0  0  0  0
 10 11  1  0  0  0  0
  2 12  1  0  0  0  0
 10 12  1  0  0  0  0
 10 13  1  0  0  0  0
  8 14  1  0  0  0  0
  6 15  1  0  0  0  0
  4 16  1  0  0  0  0
  1 17  1  0  0  0  0
  1 18  1  0  0  0  0
  1 19  1  0  0  0  0
 13 20  1  0  0  0  0
 14 21  1  0  0  0  0
 15 22  1  0  0  0  0
 16 23  1  0  0  0  0
 17 24  1  0  0  0  0
M  END
