12
 xtb: 6.7.1 (edcfbbe)
C           -1.81437900594980       -0.02013698523692       -0.98500935067907
C           -0.96142638207316        0.32831002836317        0.21653215291064
H           -1.05975273153704        1.39277177283075        0.46848768044311
C            0.52025899968532        0.09808455452579       -0.07121951108073
F            1.28872488615572        0.37660604720073        1.01286014157789
F            0.79068007868655       -1.18183872823994       -0.42155155204581
F            0.95797335866699        0.89053431754302       -1.07981463672585
O           -1.35386432150680       -0.49677434127055        1.31091603935887
H           -1.73280349391800       -1.08485586556118       -1.22112506156473
H           -1.51348954161976        0.56414968532743       -1.85771522725772
H           -2.85709791485032        0.21189369277024       -0.75744895093951
H           -1.02162474552055       -0.10248014631433        2.12892843103707
