10
 xtb: 6.7.1 (edcfbbe)
C           -1.36609037161273       -0.87645475023806        0.22881848636491
S            0.00011750407848        0.13864125048999       -0.42864818816632
O            0.00171324976523        1.43804555504059        0.40487528896861
C            1.36406892285712       -0.87965010773361        0.22854632541400
H           -1.25240476919729       -0.96506854586165        1.31286805919477
H           -1.33864055497907       -1.86013395545460       -0.24908515818134
H           -2.30007334754205       -0.36784682063227       -0.02155013301582
H            1.25129897768396       -0.96633861851272        1.31285036269360
H            2.29932652462651       -0.37426724150530       -0.02357624252767
H            1.33305882313576       -1.86394275751038       -0.24787317272904
