 xtb: 6.7.1 (edcfbbe)
          04062511443D

 31 31  0     0  0            999 V2000
    3.7425    0.2685    0.0860 C   0  0  0  0  0  0  0  0  0  0  0  0
    2.2882    0.1575   -0.3631 C   0  0  0  0  0  0  0  0  0  0  0  0
    2.2668   -0.1021   -1.4275 H   0  0  0  0  0  0  0  0  0  0  0  0
    1.5401    1.4714   -0.1636 C   0  0  0  0  0  0  0  0  0  0  0  0
    0.0881    1.3465   -0.6138 C   0  0  0  0  0  0  0  0  0  0  0  0
   -0.6813    0.2513    0.1380 C   0  0  0  0  0  0  0  0  0  0  0  0
   -0.7109    0.5122    1.2028 H   0  0  0  0  0  0  0  0  0  0  0  0
    0.0937   -1.0763   -0.0168 C   0  0  0  0  0  0  0  0  0  0  0  0
    0.0574   -1.3791   -1.0706 H   0  0  0  0  0  0  0  0  0  0  0  0
    1.5555   -0.9264    0.4194 C   0  0  0  0  0  0  0  0  0  0  0  0
   -0.4860   -2.1658    0.6795 O   0  0  0  0  0  0  0  0  0  0  0  0
   -2.1363    0.1347   -0.3765 C   0  0  0  0  0  0  0  0  0  0  0  0
   -3.0134   -0.6819    0.5749 C   0  0  0  0  0  0  0  0  0  0  0  0
   -2.8026    1.4981   -0.5822 C   0  0  0  0  0  0  0  0  0  0  0  0
    3.7954    0.5261    1.1415 H   0  0  0  0  0  0  0  0  0  0  0  0
    4.2619   -0.6749   -0.0643 H   0  0  0  0  0  0  0  0  0  0  0  0
    4.2571    1.0397   -0.4818 H   0  0  0  0  0  0  0  0  0  0  0  0
    1.5734    1.7472    0.8930 H   0  0  0  0  0  0  0  0  0  0  0  0
    2.0254    2.2675   -0.7315 H   0  0  0  0  0  0  0  0  0  0  0  0
   -0.4001    2.3068   -0.4551 H   0  0  0  0  0  0  0  0  0  0  0  0
    0.0613    1.1230   -1.6831 H   0  0  0  0  0  0  0  0  0  0  0  0
    1.5806   -0.6762    1.4840 H   0  0  0  0  0  0  0  0  0  0  0  0
    2.0502   -1.8917    0.2892 H   0  0  0  0  0  0  0  0  0  0  0  0
   -0.3771   -2.0115    1.6285 H   0  0  0  0  0  0  0  0  0  0  0  0
   -2.1071   -0.3813   -1.3435 H   0  0  0  0  0  0  0  0  0  0  0  0
   -4.0276   -0.7409    0.1857 H   0  0  0  0  0  0  0  0  0  0  0  0
   -3.0514   -0.2075    1.5535 H   0  0  0  0  0  0  0  0  0  0  0  0
   -2.6335   -1.6921    0.6841 H   0  0  0  0  0  0  0  0  0  0  0  0
   -2.3595    2.0458   -1.4082 H   0  0  0  0  0  0  0  0  0  0  0  0
   -2.7303    2.0985    0.3220 H   0  0  0  0  0  0  0  0  0  0  0  0
   -3.8566    1.3537   -0.8086 H   0  0  0  0  0  0  0  0  0  0  0  0
  1  2  1  0  0  0  0
  2  3  1  0  0  0  0
  2  4  1  0  0  0  0
  4  5  1  0  0  0  0
  5  6  1  0  0  0  0
  6  7  1  0  0  0  0
  6  8  1  0  0  0  0
  8  9  1  0  0  0  0
  2 10  1  0  0  0  0
  8 10  1  0  0  0  0
  8 11  1  0  0  0  0
  6 12  1  0  0  0  0
 12 13  1  0  0  0  0
 12 14  1  0  0  0  0
  1 15  1  0  0  0  0
  1 16  1  0  0  0  0
  1 17  1  0  0  0  0
  4 18  1  0  0  0  0
  4 19  1  0  0  0  0
  5 20  1  0  0  0  0
  5 21  1  0  0  0  0
 10 22  1  0  0  0  0
 10 23  1  0  0  0  0
 11 24  1  0  0  0  0
 12 25  1  0  0  0  0
 13 26  1  0  0  0  0
 13 27  1  0  0  0  0
 13 28  1  0  0  0  0
 14 29  1  0  0  0  0
 14 30  1  0  0  0  0
 14 31  1  0  0  0  0
M  END
