 xtb: 6.7.1 (edcfbbe)
          04062518003D

 24 24  0     0  0            999 V2000
   -1.9301   -0.6702   -0.8181 C   0  0  0  0  0  0  0  0  0  0  0  0
   -1.1654   -0.1744    0.4238 C   0  0  0  0  0  0  0  0  0  0  0  0
   -1.8791   -0.1762    1.2582 H   0  0  0  0  0  0  0  0  0  0  0  0
   -0.6146    1.2543    0.2737 C   0  0  0  0  0  0  0  0  0  0  0  0
   -1.3471    1.8545   -0.2824 H   0  0  0  0  0  0  0  0  0  0  0  0
    0.7145    1.2968   -0.5118 C   0  0  0  0  0  0  0  0  0  0  0  0
    1.1162    2.3132   -0.4099 H   0  0  0  0  0  0  0  0  0  0  0  0
    1.7129    0.3136    0.1137 C   0  0  0  0  0  0  0  0  0  0  0  0
    2.5870    0.2230   -0.5416 H   0  0  0  0  0  0  0  0  0  0  0  0
    1.0767   -1.0900    0.2128 C   0  0  0  0  0  0  0  0  0  0  0  0
    1.7114   -1.7001    0.8702 H   0  0  0  0  0  0  0  0  0  0  0  0
   -0.1709   -1.1068    0.8563 O   0  0  0  0  0  0  0  0  0  0  0  0
    1.0211   -1.6217   -1.0824 O   0  0  0  0  0  0  0  0  0  0  0  0
    2.1932    0.7431    1.3571 O   0  0  0  0  0  0  0  0  0  0  0  0
    0.5247    1.0731   -1.8839 O   0  0  0  0  0  0  0  0  0  0  0  0
   -0.3518    1.8336    1.5336 O   0  0  0  0  0  0  0  0  0  0  0  0
   -2.9234   -1.6084   -0.4761 O   0  0  0  0  0  0  0  0  0  0  0  0
   -1.2356   -1.0937   -1.5494 H   0  0  0  0  0  0  0  0  0  0  0  0
   -2.4593    0.1640   -1.2812 H   0  0  0  0  0  0  0  0  0  0  0  0
    0.9445   -2.5870   -1.0557 H   0  0  0  0  0  0  0  0  0  0  0  0
    1.4468    1.0895    1.8781 H   0  0  0  0  0  0  0  0  0  0  0  0
    0.6119    0.1242   -2.0683 H   0  0  0  0  0  0  0  0  0  0  0  0
   -1.1788    1.9714    2.0177 H   0  0  0  0  0  0  0  0  0  0  0  0
   -2.5112   -2.3581   -0.0243 H   0  0  0  0  0  0  0  0  0  0  0  0
  1  2  1  0  0  0  0
  2  3  1  0  0  0  0
  2  4  1  0  0  0  0
  4  5  1  0  0  0  0
  4  6  1  0  0  0  0
  6  7  1  0  0  0  0
  6  8  1  0  0  0  0
  8  9  1  0  0  0  0
  8 10  1  0  0  0  0
 10 11  1  0  0  0  0
  2 12  1  0  0  0  0
 10 12  1  0  0  0  0
 10 13  1  0  0  0  0
  8 14  1  0  0  0  0
  6 15  1  0  0  0  0
  4 16  1  0  0  0  0
  1 17  1  0  0  0  0
  1 18  1  0  0  0  0
  1 19  1  0  0  0  0
 13 20  1  0  0  0  0
 14 21  1  0  0  0  0
 15 22  1  0  0  0  0
 16 23  1  0  0  0  0
 17 24  1  0  0  0  0
M  END
