14
CONF1
C 0.7329165388 -1.1661893281 0.2204176154
C -0.7321598306 -1.1666205197 -0.2204261035
O -1.3920534804 -0.0004155801 0.2437986392
C -0.7329247359 1.1662153849 -0.2204140266
C 0.7321623906 1.1666062231 0.2204106771
O 1.3920660045 0.0004080175 -0.2438035432
H 1.2709500815 -2.0100895211 -0.2094550701
H 0.7862999822 -1.2046686069 1.3176884605
H -0.7857080929 -1.2052805484 -1.3176758127
H -1.2695941567 -2.0108889133 0.2095582984
H -0.7863953676 1.2048031364 -1.3176916553
H -1.2709260502 2.0101004435 0.2095521359
H 1.2696563456 2.0108138917 -0.2094823400
H 0.7855856307 1.2051900251 1.3177248855
