14
CONF1
C 0.7243109157 -1.1751364535 0.2200579782
C -0.7235926178 -1.1755800770 -0.2200234551
O -1.4007838010 -0.0004333023 0.2597431359
C -0.7243289982 1.1751354917 -0.2200285599
C 0.7235749698 1.1755765462 0.2200513352
O 1.4007645071 0.0004304780 -0.2597198585
H 1.2499507121 -2.0383384940 -0.1985350301
H 0.7877580285 -1.2119854417 1.3186221456
H -0.7870162110 -1.2124846004 -1.3185877182
H -1.2486916512 -2.0391088908 0.1985756511
H -0.7877749766 1.2119910837 -1.3185931686
H -1.2499688194 2.0383355126 0.1985689348
H 1.2486731349 2.0391056500 -0.1985454248
H 0.7870000410 1.2124766873 1.3186162984
