 xtb: 6.7.1 (edcfbbe)
          04062518003D

 24 24  0     0  0            999 V2000
   -1.7472   -1.0184   -0.7188 C   0  0  0  0  0  0  0  0  0  0  0  0
   -1.0607   -0.4840    0.5452 C   0  0  0  0  0  0  0  0  0  0  0  0
   -1.7623   -0.5953    1.3803 H   0  0  0  0  0  0  0  0  0  0  0  0
   -0.7184    1.0084    0.4268 C   0  0  0  0  0  0  0  0  0  0  0  0
   -1.5781    1.5117   -0.0265 H   0  0  0  0  0  0  0  0  0  0  0  0
    0.5225    1.2496   -0.4552 C   0  0  0  0  0  0  0  0  0  0  0  0
    0.8227    2.2979   -0.2857 H   0  0  0  0  0  0  0  0  0  0  0  0
    1.6812    0.3430    0.0104 C   0  0  0  0  0  0  0  0  0  0  0  0
    2.4680    0.3333   -0.7573 H   0  0  0  0  0  0  0  0  0  0  0  0
    1.2374   -1.1200    0.1801 C   0  0  0  0  0  0  0  0  0  0  0  0
    1.9970   -1.6203    0.8027 H   0  0  0  0  0  0  0  0  0  0  0  0
    0.0622   -1.2701    0.9307 O   0  0  0  0  0  0  0  0  0  0  0  0
    1.1627   -1.6975   -1.0849 O   0  0  0  0  0  0  0  0  0  0  0  0
    2.1894    0.7606    1.2552 O   0  0  0  0  0  0  0  0  0  0  0  0
    0.1825    1.0532   -1.8011 O   0  0  0  0  0  0  0  0  0  0  0  0
   -0.5379    1.5962    1.6918 O   0  0  0  0  0  0  0  0  0  0  0  0
   -3.0182   -0.4118   -0.8041 O   0  0  0  0  0  0  0  0  0  0  0  0
   -1.8468   -2.1074   -0.6147 H   0  0  0  0  0  0  0  0  0  0  0  0
   -1.1376   -0.7859   -1.5964 H   0  0  0  0  0  0  0  0  0  0  0  0
    1.0158   -2.6516   -1.0046 H   0  0  0  0  0  0  0  0  0  0  0  0
    2.6646    1.5986    1.1525 H   0  0  0  0  0  0  0  0  0  0  0  0
    0.9342    1.2763   -2.3692 H   0  0  0  0  0  0  0  0  0  0  0  0
    0.2117    1.1577    2.1292 H   0  0  0  0  0  0  0  0  0  0  0  0
   -3.4195   -0.6439   -1.6531 H   0  0  0  0  0  0  0  0  0  0  0  0
  1  2  1  0  0  0  0
  2  3  1  0  0  0  0
  2  4  1  0  0  0  0
  4  5  1  0  0  0  0
  4  6  1  0  0  0  0
  6  7  1  0  0  0  0
  6  8  1  0  0  0  0
  8  9  1  0  0  0  0
  8 10  1  0  0  0  0
 10 11  1  0  0  0  0
  2 12  1  0  0  0  0
 10 12  1  0  0  0  0
 10 13  1  0  0  0  0
  8 14  1  0  0  0  0
  6 15  1  0  0  0  0
  4 16  1  0  0  0  0
  1 17  1  0  0  0  0
  1 18  1  0  0  0  0
  1 19  1  0  0  0  0
 13 20  1  0  0  0  0
 14 21  1  0  0  0  0
 15 22  1  0  0  0  0
 16 23  1  0  0  0  0
 17 24  1  0  0  0  0
M  END
