 xtb: 6.7.1 (edcfbbe)
          04062518493D

 24 24  0     0  0            999 V2000
   -2.3792   -1.1791   -0.3200 C   0  0  0  0  0  0  0  0  0  0  0  0
   -1.0661   -0.6286    0.2465 C   0  0  0  0  0  0  0  0  0  0  0  0
   -1.1157   -0.6209    1.3470 H   0  0  0  0  0  0  0  0  0  0  0  0
   -0.7889    0.8060   -0.2327 C   0  0  0  0  0  0  0  0  0  0  0  0
   -0.8358    0.8287   -1.3344 H   0  0  0  0  0  0  0  0  0  0  0  0
    0.6201    1.2310    0.2019 C   0  0  0  0  0  0  0  0  0  0  0  0
    0.6312    1.3093    1.3012 H   0  0  0  0  0  0  0  0  0  0  0  0
    1.6637    0.1936   -0.2251 C   0  0  0  0  0  0  0  0  0  0  0  0
    1.7037    0.1725   -1.3258 H   0  0  0  0  0  0  0  0  0  0  0  0
    1.2411   -1.1971    0.2847 C   0  0  0  0  0  0  0  0  0  0  0  0
    1.2566   -1.1872    1.3862 H   0  0  0  0  0  0  0  0  0  0  0  0
   -0.0530   -1.5104   -0.1925 O   0  0  0  0  0  0  0  0  0  0  0  0
    2.0893   -2.2073   -0.0998 O   0  0  0  0  0  0  0  0  0  0  0  0
    2.9264    0.4893    0.3075 O   0  0  0  0  0  0  0  0  0  0  0  0
    0.9880    2.4624   -0.3710 O   0  0  0  0  0  0  0  0  0  0  0  0
   -1.6847    1.7409    0.3144 O   0  0  0  0  0  0  0  0  0  0  0  0
   -3.4484   -0.3874    0.1424 O   0  0  0  0  0  0  0  0  0  0  0  0
   -2.4753   -2.2188    0.0101 H   0  0  0  0  0  0  0  0  0  0  0  0
   -2.3169   -1.1606   -1.4150 H   0  0  0  0  0  0  0  0  0  0  0  0
    2.0744   -2.3030   -1.0657 H   0  0  0  0  0  0  0  0  0  0  0  0
    3.1433    1.4066    0.0770 H   0  0  0  0  0  0  0  0  0  0  0  0
    0.2916    3.1077   -0.1779 H   0  0  0  0  0  0  0  0  0  0  0  0
   -2.5814    1.3630    0.2915 H   0  0  0  0  0  0  0  0  0  0  0  0
   -4.2859   -0.7678   -0.1592 H   0  0  0  0  0  0  0  0  0  0  0  0
  1  2  1  0  0  0  0
  2  3  1  0  0  0  0
  2  4  1  0  0  0  0
  4  5  1  0  0  0  0
  4  6  1  0  0  0  0
  6  7  1  0  0  0  0
  6  8  1  0  0  0  0
  8  9  1  0  0  0  0
  8 10  1  0  0  0  0
 10 11  1  0  0  0  0
  2 12  1  0  0  0  0
 10 12  1  0  0  0  0
 10 13  1  0  0  0  0
  8 14  1  0  0  0  0
  6 15  1  0  0  0  0
  4 16  1  0  0  0  0
  1 17  1  0  0  0  0
  1 18  1  0  0  0  0
  1 19  1  0  0  0  0
 13 20  1  0  0  0  0
 14 21  1  0  0  0  0
 15 22  1  0  0  0  0
 16 23  1  0  0  0  0
 17 24  1  0  0  0  0
M  END
