 xtb: 6.7.1 (edcfbbe)
          04032522193D

 12 11  0     0  0            999 V2000
    1.8571    0.0709    0.2589 C   0  0  0  0  0  0  0  0  0  0  0  0
    0.5451   -0.1656   -0.4704 C   0  0  0  0  0  0  0  0  0  0  0  0
   -0.5255    0.1432    0.4060 O   0  0  0  0  0  0  0  0  0  0  0  0
   -1.7935   -0.0441   -0.1783 C   0  0  0  0  0  0  0  0  0  0  0  0
    1.9212    1.1088    0.5726 H   0  0  0  0  0  0  0  0  0  0  0  0
    1.9062   -0.5605    1.1413 H   0  0  0  0  0  0  0  0  0  0  0  0
    2.6896   -0.1603   -0.3980 H   0  0  0  0  0  0  0  0  0  0  0  0
    0.4645   -1.2156   -0.7910 H   0  0  0  0  0  0  0  0  0  0  0  0
    0.4801    0.4709   -1.3661 H   0  0  0  0  0  0  0  0  0  0  0  0
   -1.9198    0.6000   -1.0562 H   0  0  0  0  0  0  0  0  0  0  0  0
   -2.5231    0.2224    0.5821 H   0  0  0  0  0  0  0  0  0  0  0  0
   -1.9360   -1.0882   -0.4799 H   0  0  0  0  0  0  0  0  0  0  0  0
  1  2  1  0  0  0  0
  2  3  1  0  0  0  0
  3  4  1  0  0  0  0
  1  5  1  0  0  0  0
  1  6  1  0  0  0  0
  1  7  1  0  0  0  0
  2  8  1  0  0  0  0
  2  9  1  0  0  0  0
  4 10  1  0  0  0  0
  4 11  1  0  0  0  0
  4 12  1  0  0  0  0
M  END
