15
 xtb: 6.7.1 (edcfbbe)
C           -2.10254173184925        0.10641900590612       -0.00006703758528
C           -0.72007033053898        0.67949027701734       -0.00057014773321
C            0.44947553011140        0.02267406456516       -0.00050604457437
C            1.75525882746185        0.76861969471257        0.00027739689854
C            0.59725739115303       -1.47143163921637       -0.00011964438900
H           -2.66419151683191        0.44755222211542       -0.87907527919536
H           -2.11723446831237       -0.98554513855078        0.00384110105822
H           -2.66541179077147        0.45346515480566        0.87580203652399
H           -0.67596916997501        1.76971280557566       -0.00048214406833
H            2.35465145927026        0.50470801519331       -0.88078675150078
H            1.60734468300491        1.85221410083353        0.00540211501671
H            2.35815669081199        0.49682859040975        0.87654362818352
H            1.18389243811884       -1.79443053567970       -0.86971762730475
H            1.15713437481721       -1.79706395493228        0.88612078858113
H           -0.35518620972828       -2.00354963220266       -0.01534406296089
