24
 xtb: 6.7.1 (edcfbbe)
C           -2.41227153780822       -1.13949268417939       -0.33056183653793
C           -1.09859547304879       -0.61468862640703        0.22838520666274
H           -1.12355582453717       -0.63580971325778        1.33068925728359
C           -0.77812843656891        0.81396329592006       -0.23839249571090
H           -0.84012787787017        0.84474733214534       -1.33878253267883
C            0.62703618570489        1.20191142775694        0.18853085586136
H            0.64689336920534        1.28393063544523        1.28742346648977
C            1.63793415796200        0.14424380431372       -0.23390002585406
H            1.69769296825178        0.10414670406207       -1.33186773356006
C            1.19707403316234       -1.22481903719015        0.27006939045844
H            1.15188826337970       -1.24513547025911        1.37127315165618
O           -0.10140826388975       -1.52144477999918       -0.26125045038831
O            2.09157973680352       -2.18630266412425       -0.22131130907525
O            2.89633719480960        0.52115443591300        0.33083226942400
O            0.93254609133423        2.47088299088238       -0.40141001001750
O           -1.68010327319344        1.76354033586631        0.34056143201863
O           -3.48154941606610       -0.33288594513411        0.19404437599415
H           -2.53691765661905       -2.18772584227557       -0.02949655668674
H           -2.38753054528381       -1.08399702767035       -1.42667640048087
H            2.01549375422589       -2.98060847001418        0.32433236247417
H            3.57395769433426       -0.04239873473204       -0.06574382061674
H            1.80440151123724        2.73394675749028       -0.07699674144294
H           -2.57120452901481        1.38603473738670        0.23799822789495
H           -4.26544077172899       -0.50141177423119       -0.34393746188977
