 xtb: 6.7.1 (edcfbbe)
          04062518003D

 24 24  0     0  0            999 V2000
   -1.6881   -1.3716   -0.5560 C   0  0  0  0  0  0  0  0  0  0  0  0
   -1.1454   -0.4844    0.5740 C   0  0  0  0  0  0  0  0  0  0  0  0
   -1.9045   -0.4182    1.3603 H   0  0  0  0  0  0  0  0  0  0  0  0
   -0.8652    0.9560    0.1003 C   0  0  0  0  0  0  0  0  0  0  0  0
   -1.1742    1.0535   -0.9516 H   0  0  0  0  0  0  0  0  0  0  0  0
    0.6367    1.2696    0.2163 C   0  0  0  0  0  0  0  0  0  0  0  0
    0.8813    1.3730    1.2810 H   0  0  0  0  0  0  0  0  0  0  0  0
    1.4391    0.1066   -0.3797 C   0  0  0  0  0  0  0  0  0  0  0  0
    1.1098   -0.0905   -1.4067 H   0  0  0  0  0  0  0  0  0  0  0  0
    1.1658   -1.1601    0.4610 C   0  0  0  0  0  0  0  0  0  0  0  0
    1.9529   -1.2594    1.2239 H   0  0  0  0  0  0  0  0  0  0  0  0
   -0.0221   -1.0706    1.2157 O   0  0  0  0  0  0  0  0  0  0  0  0
    1.1695   -2.2575   -0.3961 O   0  0  0  0  0  0  0  0  0  0  0  0
    2.8072    0.3860   -0.4847 O   0  0  0  0  0  0  0  0  0  0  0  0
    0.9558    2.5076   -0.3642 O   0  0  0  0  0  0  0  0  0  0  0  0
   -1.6235    1.8350    0.8957 O   0  0  0  0  0  0  0  0  0  0  0  0
   -2.8611   -0.7788   -1.0609 O   0  0  0  0  0  0  0  0  0  0  0  0
   -1.8941   -2.3627   -0.1350 H   0  0  0  0  0  0  0  0  0  0  0  0
   -0.9304   -1.4722   -1.3436 H   0  0  0  0  0  0  0  0  0  0  0  0
    1.1808   -3.0840    0.1105 H   0  0  0  0  0  0  0  0  0  0  0  0
    3.1417    0.7427    0.3516 H   0  0  0  0  0  0  0  0  0  0  0  0
    0.9626    2.4289   -1.3293 H   0  0  0  0  0  0  0  0  0  0  0  0
   -1.3723    2.7463    0.6787 H   0  0  0  0  0  0  0  0  0  0  0  0
   -3.2645   -1.3746   -1.7082 H   0  0  0  0  0  0  0  0  0  0  0  0
  1  2  1  0  0  0  0
  2  3  1  0  0  0  0
  2  4  1  0  0  0  0
  4  5  1  0  0  0  0
  4  6  1  0  0  0  0
  6  7  1  0  0  0  0
  6  8  1  0  0  0  0
  8  9  1  0  0  0  0
  8 10  1  0  0  0  0
 10 11  1  0  0  0  0
  2 12  1  0  0  0  0
 10 12  1  0  0  0  0
 10 13  1  0  0  0  0
  8 14  1  0  0  0  0
  6 15  1  0  0  0  0
  4 16  1  0  0  0  0
  1 17  1  0  0  0  0
  1 18  1  0  0  0  0
  1 19  1  0  0  0  0
 13 20  1  0  0  0  0
 14 21  1  0  0  0  0
 15 22  1  0  0  0  0
 16 23  1  0  0  0  0
 17 24  1  0  0  0  0
M  END
