 xtb: 6.7.1 (edcfbbe)
          04062505073D

 29 29  0     0  0            999 V2000
   -3.5124   -0.5272    0.0547 C   0  0  0  0  0  0  0  0  0  0  0  0
   -2.1429   -0.1433   -0.5016 C   0  0  0  0  0  0  0  0  0  0  0  0
   -2.2699    0.1719   -1.5419 H   0  0  0  0  0  0  0  0  0  0  0  0
   -1.1641   -1.3280   -0.4553 C   0  0  0  0  0  0  0  0  0  0  0  0
   -0.2421   -1.2264    0.7552 C   0  0  0  0  0  0  0  0  0  0  0  0
    0.6984   -0.0245    0.6023 C   0  0  0  0  0  0  0  0  0  0  0  0
    1.0785    0.2438    1.5960 H   0  0  0  0  0  0  0  0  0  0  0  0
   -0.0950    1.1749    0.1224 C   0  0  0  0  0  0  0  0  0  0  0  0
    0.4141    2.1648   -0.3700 O   0  0  0  0  0  0  0  0  0  0  0  0
   -1.5828    1.0550    0.2914 C   0  0  0  0  0  0  0  0  0  0  0  0
    1.9360   -0.2443   -0.3078 C   0  0  0  0  0  0  0  0  0  0  0  0
    3.0343    0.7524    0.0675 C   0  0  0  0  0  0  0  0  0  0  0  0
    2.5056   -1.6601   -0.2339 C   0  0  0  0  0  0  0  0  0  0  0  0
   -4.1725    0.3366    0.0728 H   0  0  0  0  0  0  0  0  0  0  0  0
   -3.9697   -1.2946   -0.5648 H   0  0  0  0  0  0  0  0  0  0  0  0
   -3.4179   -0.9117    1.0675 H   0  0  0  0  0  0  0  0  0  0  0  0
   -1.7241   -2.2629   -0.4219 H   0  0  0  0  0  0  0  0  0  0  0  0
   -0.5530   -1.3399   -1.3597 H   0  0  0  0  0  0  0  0  0  0  0  0
   -0.8431   -1.1077    1.6577 H   0  0  0  0  0  0  0  0  0  0  0  0
    0.3321   -2.1416    0.8747 H   0  0  0  0  0  0  0  0  0  0  0  0
   -1.7911    0.9106    1.3526 H   0  0  0  0  0  0  0  0  0  0  0  0
   -2.0575    1.9819   -0.0329 H   0  0  0  0  0  0  0  0  0  0  0  0
    1.6362   -0.0432   -1.3428 H   0  0  0  0  0  0  0  0  0  0  0  0
    3.8701    0.6700   -0.6235 H   0  0  0  0  0  0  0  0  0  0  0  0
    3.3986    0.5522    1.0733 H   0  0  0  0  0  0  0  0  0  0  0  0
    2.6583    1.7707    0.0261 H   0  0  0  0  0  0  0  0  0  0  0  0
    2.7160   -1.9358    0.7967 H   0  0  0  0  0  0  0  0  0  0  0  0
    3.4388   -1.6962   -0.7911 H   0  0  0  0  0  0  0  0  0  0  0  0
    1.8309   -2.3904   -0.6710 H   0  0  0  0  0  0  0  0  0  0  0  0
  1  2  1  0  0  0  0
  2  3  1  0  0  0  0
  2  4  1  0  0  0  0
  4  5  1  0  0  0  0
  5  6  1  0  0  0  0
  6  7  1  0  0  0  0
  6  8  1  0  0  0  0
  8  9  2  0  0  0  0
  2 10  1  0  0  0  0
  8 10  1  0  0  0  0
  6 11  1  0  0  0  0
 11 12  1  0  0  0  0
 11 13  1  0  0  0  0
  1 14  1  0  0  0  0
  1 15  1  0  0  0  0
  1 16  1  0  0  0  0
  4 17  1  0  0  0  0
  4 18  1  0  0  0  0
  5 19  1  0  0  0  0
  5 20  1  0  0  0  0
 10 21  1  0  0  0  0
 10 22  1  0  0  0  0
 11 23  1  0  0  0  0
 12 24  1  0  0  0  0
 12 25  1  0  0  0  0
 12 26  1  0  0  0  0
 13 27  1  0  0  0  0
 13 28  1  0  0  0  0
 13 29  1  0  0  0  0
M  END
