24
 xtb: 6.7.1 (edcfbbe)
C           -2.57208644792041       -0.64533944390655       -0.29775475453361
C           -1.19884494324397       -0.27238195178457        0.22251987125093
H           -1.21320538629625       -0.23471545526170        1.32396847011486
C           -0.70684869811067        1.06575396997896       -0.32708350433944
H           -0.72424321871152        1.02770902034398       -1.42913400386088
C            0.72466707146882        1.30626734173022        0.14478459110234
H            0.71675006091703        1.43141546269254        1.23530153557554
C            1.63044616743659        0.12807577054687       -0.20713492322000
H            1.71017081697763        0.03682573147496       -1.30295080669728
C            1.01709806640976       -1.15709014903290        0.33156625649520
H            0.95211749501002       -1.12719194847431        1.43172171726126
O           -0.29883487365469       -1.30603046255504       -0.21516495511244
O            1.78722440818836       -2.24446811102991       -0.10415867183443
O            2.92289077989640        0.28115122591002        0.38145437722503
O            1.24942835504460        2.53419270655546       -0.37613456899236
O           -1.57885713570040        2.09322594874441        0.15085429415664
O           -3.05343714054024       -1.86215695648449        0.28471367367692
H           -2.53543473534047       -0.72422579803621       -1.39404910848193
H           -3.28659589113466        0.13546926860991       -0.02757257409290
H            1.57390755137017       -3.00686406494852        0.45071222840519
H            3.24360220301026        1.15926321199592        0.13257638001297
H            1.26003188029541        2.46308732761899       -1.34253914854503
H           -1.18150120151311        2.93851768724372       -0.10212816817007
H           -2.44080564109248       -2.56344606404418        0.02648275480013
