 xtb: 6.7.1 (edcfbbe)
          04062518003D

 24 24  0     0  0            999 V2000
   -2.3467   -0.8388    0.6135 C   0  0  0  0  0  0  0  0  0  0  0  0
   -0.8847   -0.3786    0.6553 C   0  0  0  0  0  0  0  0  0  0  0  0
   -0.5573   -0.3214    1.7011 H   0  0  0  0  0  0  0  0  0  0  0  0
   -0.7229    1.0044    0.0092 C   0  0  0  0  0  0  0  0  0  0  0  0
   -1.2673    0.9945   -0.9447 H   0  0  0  0  0  0  0  0  0  0  0  0
    0.7657    1.2849   -0.3127 C   0  0  0  0  0  0  0  0  0  0  0  0
    1.0004    2.2869    0.0727 H   0  0  0  0  0  0  0  0  0  0  0  0
    1.6947    0.2616    0.3728 C   0  0  0  0  0  0  0  0  0  0  0  0
    2.7175    0.3874   -0.0169 H   0  0  0  0  0  0  0  0  0  0  0  0
    1.2724   -1.1678   -0.0259 C   0  0  0  0  0  0  0  0  0  0  0  0
    1.7111   -1.8727    0.6981 H   0  0  0  0  0  0  0  0  0  0  0  0
   -0.1264   -1.3453   -0.0543 O   0  0  0  0  0  0  0  0  0  0  0  0
    1.7829   -1.5153   -1.2654 O   0  0  0  0  0  0  0  0  0  0  0  0
    1.6893    0.3565    1.7729 O   0  0  0  0  0  0  0  0  0  0  0  0
    0.9301    1.2306   -1.7127 O   0  0  0  0  0  0  0  0  0  0  0  0
   -1.2541    1.9549    0.8982 O   0  0  0  0  0  0  0  0  0  0  0  0
   -2.8293   -0.9750   -0.6977 O   0  0  0  0  0  0  0  0  0  0  0  0
   -2.9645   -0.0830    1.1006 H   0  0  0  0  0  0  0  0  0  0  0  0
   -2.4304   -1.7866    1.1580 H   0  0  0  0  0  0  0  0  0  0  0  0
    1.3744   -0.9421   -1.9397 H   0  0  0  0  0  0  0  0  0  0  0  0
    2.0398    1.2165    2.0494 H   0  0  0  0  0  0  0  0  0  0  0  0
    1.7459    1.6834   -1.9707 H   0  0  0  0  0  0  0  0  0  0  0  0
   -1.5073    2.7535    0.4140 H   0  0  0  0  0  0  0  0  0  0  0  0
   -2.2794   -1.6309   -1.1504 H   0  0  0  0  0  0  0  0  0  0  0  0
  1  2  1  0  0  0  0
  2  3  1  0  0  0  0
  2  4  1  0  0  0  0
  4  5  1  0  0  0  0
  4  6  1  0  0  0  0
  6  7  1  0  0  0  0
  6  8  1  0  0  0  0
  8  9  1  0  0  0  0
  8 10  1  0  0  0  0
 10 11  1  0  0  0  0
  2 12  1  0  0  0  0
 10 12  1  0  0  0  0
 10 13  1  0  0  0  0
  8 14  1  0  0  0  0
  6 15  1  0  0  0  0
  4 16  1  0  0  0  0
  1 17  1  0  0  0  0
  1 18  1  0  0  0  0
  1 19  1  0  0  0  0
 13 20  1  0  0  0  0
 14 21  1  0  0  0  0
 15 22  1  0  0  0  0
 16 23  1  0  0  0  0
 17 24  1  0  0  0  0
M  END
