21
 xtb: 6.7.1 (edcfbbe)
C           -2.67572853899094       -1.43990725587763       -0.07409167002125
C           -1.96334100158631       -0.09570135515438        0.01138219651428
C           -0.45335999780458       -0.14018686800533       -0.00613589996919
C            0.25039926067172       -1.34349432755856       -0.09824105939044
C            1.64483265946137       -1.37121496061654       -0.11290889746232
C            2.35944009757366       -0.18175782698171       -0.03417365997754
C            1.66971493715448        1.02567697470127        0.05782801576602
C            0.27395614520724        1.06775993299745        0.07271555711073
C           -0.43745455044589        2.38708225431662        0.17099976469618
H           -3.75881632520136       -1.28744753732987       -0.05163728717803
H           -2.41415748510893       -2.09168992439940        0.76595684042577
H           -2.43406363890724       -1.96943465326751       -1.00157486007867
H           -2.28388400383656        0.42620770737264        0.92327606686407
H           -2.30149394274390        0.54536602954624       -0.81418299111660
H           -0.29255288767526       -2.28074622055301       -0.15988464088910
H            2.16564846171255       -2.32137795049876       -0.18518045222425
H            3.44519327960601       -0.18910399442276       -0.04409150609359
H            2.22408716762020        1.95876191866131        0.11907901901360
H            0.27833354266809        3.21090824652563        0.22189547820669
H           -1.09165174721460        2.55482868736513       -0.69268561309739
H           -1.07640104804931        2.43330763320905        1.06073614448252
