23
CONF2
C -2.7303167647 -0.0356110171 1.0719141083
C -1.7802572479 0.1499462090 -0.0726506313
O -2.1725679739 0.1577939294 -1.2374925873
C -0.3202347802 0.3126131807 0.2740009895
C 0.4520467817 1.1541672426 -0.7437518762
C 1.9255320038 1.2633634728 -0.3482321905
C 2.5626650250 -0.1211249937 -0.2157445215
C 1.7872107707 -0.9924325300 0.7733594315
C 0.3104517098 -1.0965801078 0.3885309970
H -2.3046643775 -0.6941565722 1.8352656663
H -2.8736838830 0.9436393554 1.5473629406
H -3.6958923875 -0.4117918572 0.7299055596
H -0.2600881028 0.7818868811 1.2659804413
H 0.3740280564 0.6814869804 -1.7306747599
H -0.0009632641 2.1491916681 -0.8241193437
H 2.4666615447 1.8615754778 -1.0903467958
H 2.0057386399 1.7932528026 0.6110091998
H 2.5682147204 -0.6101796486 -1.1997799130
H 3.6075521018 -0.0292693190 0.1024899048
H 2.2236881365 -1.9968844511 0.8216804175
H 1.8650477730 -0.5586566879 1.7795580067
H 0.2148652328 -1.5985406370 -0.5838141896
H -0.2336229141 -1.6978222565 1.1252564611
23
CONF1
C -2.7385499642 0.7256224352 0.7647443675
C -1.7691457437 -0.1193638796 -0.0048294297
O -2.1412352344 -0.8592510407 -0.9128670651
C -0.3130704011 -0.0008900705 0.3750353793
C 0.3094555773 1.1484126768 -0.4540696295
C 1.7816986168 1.3378926827 -0.0857493969
C 2.5726171452 0.0410554267 -0.2642203471
C 1.9445104977 -1.1023057877 0.5347864477
C 0.4747920674 -1.2948485906 0.1579748296
H -2.3374312745 1.7310020941 0.9272110694
H -3.7092665573 0.7713778753 0.2682478717
H -2.8607955353 0.2736043819 1.7576973986
H -0.2625868249 0.2903697151 1.4332847983
H 0.2229928181 0.8933034205 -1.5189825206
H -0.2478947131 2.0776626350 -0.2917556250
H 2.2125197160 2.1360470000 -0.7014248899
H 1.8500892310 1.6652364197 0.9605680970
H 2.5861042017 -0.2289656087 -1.3292948425
H 3.6143671319 0.1902422630 0.0424336295
H 2.4970254758 -2.0336001708 0.3652671187
H 2.0176464932 -0.8778135072 1.6080141371
H 0.4023165890 -1.5843002786 -0.8977261042
H 0.0286896813 -2.1043648712 0.7475621482
23
CONF7
C -2.6418187684 1.0506012173 0.0658992378
C -1.7328402200 -0.0734392581 -0.3436338804
O -2.1410922542 -0.9727860134 -1.0738152415
C -0.3070215329 -0.0356428617 0.1544679761
C 0.3836040279 1.2729907291 -0.2922674854
C 1.8207107473 1.3347040517 0.2289092404
C 2.6271082848 0.1068442664 -0.1938785712
C 1.9375101427 -1.1798249079 0.2609357266
C 0.5059446451 -1.2561467884 -0.2724308009
H -3.6825204396 0.7215332730 0.0397002378
H -2.3852912107 1.4476782020 1.0509509999
H -2.5251787904 1.8666513534 -0.6584458348
H -0.3744553007 -0.0047159963 1.2541423808
H 0.3866122162 1.3089736351 -1.3904705389
H -0.1799479555 2.1417193082 0.0623016419
H 2.3005681851 2.2512307978 -0.1335579985
H 1.8003470609 1.3942349210 1.3258837534
H 2.7242205669 0.0971532405 -1.2885711097
H 3.6416601304 0.1612042826 0.2175901644
H 2.5054256451 -2.0556959857 -0.0733939900
H 1.9176384670 -1.2110572263 1.3592115313
H 0.5276662092 -1.3027776062 -1.3692321943
H 0.0155781311 -2.1717438718 0.0760088723
23
CONF3
C -2.6303256502 -0.5632570565 1.0230006885
C -1.7729732016 0.0290889899 -0.0598123547
O -2.2501815717 0.2882330564 -1.1621830694
C -0.3134333821 0.2567743746 0.2506559961
C 0.4318246039 0.9799423286 -0.8689263702
C 1.9029404318 1.1888528615 -0.5054174092
C 2.5849751900 -0.1411768097 -0.1839157453
C 1.8446167672 -0.8768529862 0.9326710530
C 0.3697552334 -1.0894128708 0.5878454636
H -3.6731629607 -0.2757314683 0.8749653309
H -2.5671852493 -1.6565389814 0.9528207798
H -2.2874900497 -0.2776631378 2.0203310802
H -0.2872356620 0.8682504120 1.1663966787
H 0.3649775093 0.3820614509 -1.7871201443
H -0.0517824291 1.9407546256 -1.0776249566
H 2.4203802360 1.6937692446 -1.3291078546
H 1.9705999747 1.8512330148 0.3687739040
H 2.5970499944 -0.7689708435 -1.0858930885
H 3.6295322718 0.0262234386 0.1031446714
H 2.3160752341 -1.8464828510 1.1303294629
H 1.9121836890 -0.2905165981 1.8592531837
H 0.2843523924 -1.7521362401 -0.2843112768
H -0.1428914809 -1.5780941249 1.4223352858
23
CONF5
C -2.6440034226 -0.4721769583 1.0464226311
C -1.7796263612 0.1215837674 -0.0310192849
O -2.2599352647 0.4170740772 -1.1227734012
C -0.3117681333 0.3026838356 0.2707237509
C 0.4439370048 1.0301127363 -0.8391855392
C 1.9236774808 1.1872298505 -0.4851721337
C 2.5687020646 -0.1703716299 -0.2036794044
C 1.8179762058 -0.9103974483 0.9033236000
C 0.3339441162 -1.0711516938 0.5687362728
H -2.2500905941 -0.2806078731 2.0467810789
H -3.6646308470 -0.0956515279 0.9546406825
H -2.6727584956 -1.5589839861 0.9006302114
H -0.2597755382 0.8905069313 1.2009916339
H 0.3521523584 0.4542607460 -1.7692624518
H -0.0138384337 2.0086725358 -1.0222529298
H 2.4487016412 1.6973954379 -1.3008888861
H 2.0192958549 1.8250708372 0.4046723728
H 2.5510188394 -0.7759464503 -1.1207629069
H 3.6212043062 -0.0422002416 0.0746271742
H 2.2623104248 -1.8979202207 1.0737257752
H 1.9114545461 -0.3477150044 1.8423346174
H 0.2201461854 -1.7096598216 -0.3182578428
H -0.1854693403 -1.5648134484 1.3963493099
23
CONF4
C -2.2436899583 -0.7542453671 -1.1044532767
C -1.7795678228 -0.0034281809 0.1063702513
O -2.5790659122 0.5916507648 0.8281493830
C -0.3009128619 0.0412942601 0.4083234538
C 0.3319205319 1.1943197018 -0.4065683702
C 1.8191041192 1.3293881925 -0.0753023436
C 2.5661642373 0.0162010748 -0.3115713657
C 1.9277656498 -1.1283447973 0.4768676502
C 0.4440930661 -1.2722346078 0.1333209013
H -3.2893410738 -0.5278555098 -1.3181070350
H -1.6164682179 -0.5258406446 -1.9719848261
H -2.1384024550 -1.8299162072 -0.9166494586
H -0.2070140259 0.2953323588 1.4722555520
H 0.2112510202 0.9844674442 -1.4774753205
H -0.1950638076 2.1304814033 -0.1907028933
H 2.2560324992 2.1317997637 -0.6809061826
H 1.9271610383 1.6246804679 0.9770996282
H 2.5402176446 -0.2261630860 -1.3830064572
H 3.6203259264 0.1269630961 -0.0328175621
H 2.4480746691 -2.0703965368 0.2698298161
H 2.0337430003 -0.9324143734 1.5526583151
H 0.3464555882 -1.5349246483 -0.9275780743
H -0.0066151049 -2.0852804644 0.7141771398
