 xtb: 6.7.1 (edcfbbe)
          04062508443D

 31 32  0     0  0            999 V2000
    1.5049    2.5134    1.1849 C   0  0  0  0  0  0  0  0  0  0  0  0
    1.7612    1.6558   -0.0529 C   0  0  0  0  0  0  0  0  0  0  0  0
    2.7957    0.5370    0.2310 C   0  0  0  0  0  0  0  0  0  0  0  0
    1.9734   -0.7119    0.1449 C   0  0  0  0  0  0  0  0  0  0  0  0
    2.3055   -2.0352    0.3307 C   0  0  0  0  0  0  0  0  0  0  0  0
    1.3196   -3.0010    0.1713 C   0  0  0  0  0  0  0  0  0  0  0  0
    0.0239   -2.6419   -0.1546 C   0  0  0  0  0  0  0  0  0  0  0  0
   -0.3133   -1.3079   -0.3453 C   0  0  0  0  0  0  0  0  0  0  0  0
    0.6738   -0.3439   -0.2018 C   0  0  0  0  0  0  0  0  0  0  0  0
    0.5112    0.9844   -0.3847 O   0  0  0  0  0  0  0  0  0  0  0  0
   -1.6192   -0.9676   -0.7082 O   0  0  0  0  0  0  0  0  0  0  0  0
   -2.2767   -0.0847    0.0955 C   0  0  0  0  0  0  0  0  0  0  0  0
   -1.8730    0.2632    1.1891 O   0  0  0  0  0  0  0  0  0  0  0  0
   -3.4183    0.2986   -0.4810 N   0  0  0  0  0  0  0  0  0  0  0  0
   -4.3599    1.1955    0.1495 C   0  0  0  0  0  0  0  0  0  0  0  0
    2.1540    2.5169   -1.2500 C   0  0  0  0  0  0  0  0  0  0  0  0
    0.7317    3.2469    0.9720 H   0  0  0  0  0  0  0  0  0  0  0  0
    1.1580    1.8842    2.0021 H   0  0  0  0  0  0  0  0  0  0  0  0
    2.4156    3.0255    1.4803 H   0  0  0  0  0  0  0  0  0  0  0  0
    3.5939    0.5351   -0.5126 H   0  0  0  0  0  0  0  0  0  0  0  0
    3.2446    0.6547    1.2170 H   0  0  0  0  0  0  0  0  0  0  0  0
    3.3126   -2.3148    0.5952 H   0  0  0  0  0  0  0  0  0  0  0  0
    1.5596   -4.0424    0.3116 H   0  0  0  0  0  0  0  0  0  0  0  0
   -0.7477   -3.3861   -0.2692 H   0  0  0  0  0  0  0  0  0  0  0  0
   -3.6336   -0.0727   -1.3937 H   0  0  0  0  0  0  0  0  0  0  0  0
   -5.3181    0.6972    0.2930 H   0  0  0  0  0  0  0  0  0  0  0  0
   -4.4982    2.0853   -0.4634 H   0  0  0  0  0  0  0  0  0  0  0  0
   -3.9505    1.4809    1.1164 H   0  0  0  0  0  0  0  0  0  0  0  0
    3.0760    3.0477   -1.0338 H   0  0  0  0  0  0  0  0  0  0  0  0
    1.3672    3.2364   -1.4596 H   0  0  0  0  0  0  0  0  0  0  0  0
    2.2942    1.8919   -2.1288 H   0  0  0  0  0  0  0  0  0  0  0  0
  1  2  1  0  0  0  0
  2  3  1  0  0  0  0
  3  4  1  0  0  0  0
  4  5  4  0  0  0  0
  5  6  4  0  0  0  0
  6  7  4  0  0  0  0
  7  8  4  0  0  0  0
  4  9  4  0  0  0  0
  8  9  4  0  0  0  0
  2 10  1  0  0  0  0
  9 10  1  0  0  0  0
  8 11  1  0  0  0  0
 11 12  1  0  0  0  0
 12 13  2  0  0  0  0
 12 14  4  0  0  0  0
 14 15  1  0  0  0  0
  2 16  1  0  0  0  0
  1 17  1  0  0  0  0
  1 18  1  0  0  0  0
  1 19  1  0  0  0  0
  3 20  1  0  0  0  0
  3 21  1  0  0  0  0
  5 22  1  0  0  0  0
  6 23  1  0  0  0  0
  7 24  1  0  0  0  0
 14 25  1  0  0  0  0
 15 26  1  0  0  0  0
 15 27  1  0  0  0  0
 15 28  1  0  0  0  0
 16 29  1  0  0  0  0
 16 30  1  0  0  0  0
 16 31  1  0  0  0  0
M  END
