 xtb: 6.7.1 (edcfbbe)
          04042520213D

 15 14  0     0  0            999 V2000
    1.8428    0.9773   -0.2270 C   0  0  0  0  0  0  0  0  0  0  0  0
    0.9788   -0.1059    0.4069 C   0  0  0  0  0  0  0  0  0  0  0  0
   -0.3733   -0.2858   -0.2954 C   0  0  0  0  0  0  0  0  0  0  0  0
   -0.1974   -0.4762   -1.3680 H   0  0  0  0  0  0  0  0  0  0  0  0
   -1.2731    0.9373   -0.1532 C   0  0  0  0  0  0  0  0  0  0  0  0
   -1.0879   -1.3845    0.2549 O   0  0  0  0  0  0  0  0  0  0  0  0
    1.9726    0.7856   -1.2898 H   0  0  0  0  0  0  0  0  0  0  0  0
    2.8229    0.9917    0.2428 H   0  0  0  0  0  0  0  0  0  0  0  0
    1.3926    1.9580   -0.1044 H   0  0  0  0  0  0  0  0  0  0  0  0
    0.7959    0.1277    1.4578 H   0  0  0  0  0  0  0  0  0  0  0  0
    1.5176   -1.0565    0.3662 H   0  0  0  0  0  0  0  0  0  0  0  0
   -2.2514    0.7102   -0.5682 H   0  0  0  0  0  0  0  0  0  0  0  0
   -1.3944    1.1847    0.8980 H   0  0  0  0  0  0  0  0  0  0  0  0
   -0.8512    1.7852   -0.6818 H   0  0  0  0  0  0  0  0  0  0  0  0
   -0.5435   -2.1811    0.2027 H   0  0  0  0  0  0  0  0  0  0  0  0
  1  2  1  0  0  0  0
  2  3  1  0  0  0  0
  3  4  1  0  0  0  0
  3  5  1  0  0  0  0
  3  6  1  0  0  0  0
  1  7  1  0  0  0  0
  1  8  1  0  0  0  0
  1  9  1  0  0  0  0
  2 10  1  0  0  0  0
  2 11  1  0  0  0  0
  5 12  1  0  0  0  0
  5 13  1  0  0  0  0
  5 14  1  0  0  0  0
  6 15  1  0  0  0  0
M  END
