 xtb: 6.7.1 (edcfbbe)
          04032521503D

 11 10  0     0  0            999 V2000
   -2.5134   -0.1985    0.0001 C   0  0  0  0  0  0  0  0  0  0  0  0
   -1.1613    0.3963    0.0000 C   0  0  0  0  0  0  0  0  0  0  0  0
   -0.0163   -0.2990   -0.0000 C   0  0  0  0  0  0  0  0  0  0  0  0
    1.2725    0.3483    0.0000 C   0  0  0  0  0  0  0  0  0  0  0  0
    2.3504   -0.2206    0.0001 O   0  0  0  0  0  0  0  0  0  0  0  0
   -3.0636    0.1455    0.8748 H   0  0  0  0  0  0  0  0  0  0  0  0
   -2.4734   -1.2835    0.0001 H   0  0  0  0  0  0  0  0  0  0  0  0
   -3.0636    0.1454   -0.8747 H   0  0  0  0  0  0  0  0  0  0  0  0
   -1.1155    1.4785    0.0001 H   0  0  0  0  0  0  0  0  0  0  0  0
   -0.0110   -1.3799    0.0001 H   0  0  0  0  0  0  0  0  0  0  0  0
    1.2378    1.4542    0.0000 H   0  0  0  0  0  0  0  0  0  0  0  0
  1  2  1  0  0  0  0
  2  3  2  0  0  0  0
  3  4  1  0  0  0  0
  4  5  2  0  0  0  0
  1  6  1  0  0  0  0
  1  7  1  0  0  0  0
  1  8  1  0  0  0  0
  2  9  1  0  0  0  0
  3 10  1  0  0  0  0
  4 11  1  0  0  0  0
M  END
