11
CONF2
C -2.7665912350 0.1002637995 -0.6480199437
O -1.3243661979 -0.1052188262 -0.7724240272
C -0.6164694061 0.1561473914 0.3099384707
O -1.0136010036 0.5358599718 1.3849697200
C 0.8845028372 -0.0915246435 0.0165382055
F 1.3136880532 0.7043115232 -0.9833459187
F 1.6203159315 0.1656651356 1.1037398033
F 1.1005330130 -1.3705636404 -0.3488781396
H -3.1569459952 -0.5400222186 0.1447993665
H -3.1749602867 -0.1819260795 -1.6159710177
H -2.9627396299 1.1516372362 -0.4305247419
11
CONF3
C -2.8034743041 -0.1224009225 -0.5055836562
O -1.3609445150 -0.2928482694 -0.6741756842
C -0.6197987122 0.0965936563 0.3460666099
O -0.9870651648 0.5672715796 1.3956615915
C 0.8806409562 -0.0904411051 0.0092038779
F 1.2919044435 0.9138640446 -0.7954598643
F 1.6160245144 -0.0578909515 1.1271837742
F 1.1197342016 -1.2532268868 -0.6216224317
H -3.1329576492 -0.6724124706 0.3775105637
H -3.2426638668 -0.5361083121 -1.4107721386
H -3.0313165622 0.9407884307 -0.4090923825
11
CONF4
C -2.8287704442 -0.2444529109 -0.3582181469
O -1.4016891996 -0.5517041526 -0.4550530158
C -0.6007122147 0.3056110304 0.1429982870
O -0.9023531162 1.3042948681 0.7541631890
C 0.8863019312 -0.0994783547 0.0008477288
F 1.5765692901 0.9217584981 -0.5408916739
F 1.3981055506 -0.3425459051 1.2239254141
F 1.0815007983 -1.1866081389 -0.7577558752
H -3.3223451325 -1.0207527741 -0.9384952004
H -3.0158643790 0.7433500847 -0.7824295220
H -3.1339076843 -0.2817269114 0.6889033978
