 xtb: 6.7.1 (edcfbbe)
          04052503283D

 18 18  0     0  0            999 V2000
   -3.1974    0.2932   -0.3932 C   0  0  0  0  0  0  0  0  0  0  0  0
   -2.2468   -0.7417   -0.2595 O   0  0  0  0  0  0  0  0  0  0  0  0
   -0.9143   -0.3968   -0.1940 C   0  0  0  0  0  0  0  0  0  0  0  0
   -0.0187   -1.4560   -0.0580 C   0  0  0  0  0  0  0  0  0  0  0  0
    1.3371   -1.2256    0.0140 C   0  0  0  0  0  0  0  0  0  0  0  0
    1.8468    0.0748   -0.0459 C   0  0  0  0  0  0  0  0  0  0  0  0
    0.9425    1.1261   -0.1840 C   0  0  0  0  0  0  0  0  0  0  0  0
   -0.4207    0.8989   -0.2561 C   0  0  0  0  0  0  0  0  0  0  0  0
    3.1982    0.3133    0.1030 N   0  0  0  0  0  0  0  0  0  0  0  0
   -4.1636   -0.2059   -0.4212 H   0  0  0  0  0  0  0  0  0  0  0  0
   -3.0469    0.8530   -1.3210 H   0  0  0  0  0  0  0  0  0  0  0  0
   -3.1623    0.9771    0.4598 H   0  0  0  0  0  0  0  0  0  0  0  0
   -0.4143   -2.4588   -0.0135 H   0  0  0  0  0  0  0  0  0  0  0  0
    2.0159   -2.0586    0.1200 H   0  0  0  0  0  0  0  0  0  0  0  0
    1.3110    2.1402   -0.2333 H   0  0  0  0  0  0  0  0  0  0  0  0
   -1.0833    1.7429   -0.3633 H   0  0  0  0  0  0  0  0  0  0  0  0
    3.5258    1.2002   -0.2428 H   0  0  0  0  0  0  0  0  0  0  0  0
    3.8030   -0.4652   -0.1012 H   0  0  0  0  0  0  0  0  0  0  0  0
  1  2  1  0  0  0  0
  2  3  1  0  0  0  0
  3  4  4  0  0  0  0
  4  5  4  0  0  0  0
  5  6  4  0  0  0  0
  6  7  4  0  0  0  0
  3  8  4  0  0  0  0
  7  8  4  0  0  0  0
  6  9  1  0  0  0  0
  1 10  1  0  0  0  0
  1 11  1  0  0  0  0
  1 12  1  0  0  0  0
  4 13  1  0  0  0  0
  5 14  1  0  0  0  0
  7 15  1  0  0  0  0
  8 16  1  0  0  0  0
  9 17  1  0  0  0  0
  9 18  1  0  0  0  0
M  END
