 xtb: 6.7.1 (edcfbbe)
          04052510423D

 24 25  0     0  0            999 V2000
   -3.6101   -1.4803    0.0222 C   0  0  0  0  0  0  0  0  0  0  0  0
   -4.7164   -0.6014    0.5424 C   0  0  0  0  0  0  0  0  0  0  0  0
   -4.6125    0.7030    0.7557 C   0  0  0  0  0  0  0  0  0  0  0  0
   -3.3864    1.5280    0.4672 C   0  0  0  0  0  0  0  0  0  0  0  0
   -2.4772    0.7011   -0.4288 C   0  0  0  0  0  0  0  0  0  0  0  0
   -2.9568    0.6176   -1.4132 H   0  0  0  0  0  0  0  0  0  0  0  0
   -2.3084   -0.7044    0.1502 C   0  0  0  0  0  0  0  0  0  0  0  0
   -2.0689   -0.6159    1.2186 H   0  0  0  0  0  0  0  0  0  0  0  0
   -1.0473   -1.2031   -0.4938 C   0  0  0  0  0  0  0  0  0  0  0  0
   -0.6434   -2.3182   -0.6715 O   0  0  0  0  0  0  0  0  0  0  0  0
   -0.3252   -0.0454   -0.8356 N   0  0  0  0  0  0  0  0  0  0  0  0
   -1.0708    1.1404   -0.7149 C   0  0  0  0  0  0  0  0  0  0  0  0
   -0.6087    2.2360   -0.8744 O   0  0  0  0  0  0  0  0  0  0  0  0
    1.2715   -0.0810   -1.3974 S   0  0  0  0  0  0  0  0  0  0  0  0
    2.1876    0.0053    0.1879 C   0  0  0  0  0  0  0  0  0  0  0  0
    3.8912   -0.0661   -0.2628 Cl  0  0  0  0  0  0  0  0  0  0  0  0
    1.8527    1.5196    1.0608 Cl  0  0  0  0  0  0  0  0  0  0  0  0
    1.7825   -1.3621    1.2522 Cl  0  0  0  0  0  0  0  0  0  0  0  0
   -3.8012   -1.7478   -1.0202 H   0  0  0  0  0  0  0  0  0  0  0  0
   -3.5685   -2.4083    0.5934 H   0  0  0  0  0  0  0  0  0  0  0  0
   -5.6457   -1.1077    0.7550 H   0  0  0  0  0  0  0  0  0  0  0  0
   -5.4522    1.2500    1.1567 H   0  0  0  0  0  0  0  0  0  0  0  0
   -3.6686    2.4620   -0.0195 H   0  0  0  0  0  0  0  0  0  0  0  0
   -2.8801    1.7871    1.4008 H   0  0  0  0  0  0  0  0  0  0  0  0
  1  2  1  0  0  0  0
  2  3  2  0  0  0  0
  3  4  1  0  0  0  0
  4  5  1  0  0  0  0
  5  6  1  0  0  0  0
  1  7  1  0  0  0  0
  5  7  1  0  0  0  0
  7  8  1  0  0  0  0
  7  9  1  0  0  0  0
  9 10  2  0  0  0  0
  9 11  1  0  0  0  0
  5 12  1  0  0  0  0
 11 12  1  0  0  0  0
 12 13  2  0  0  0  0
 11 14  1  0  0  0  0
 14 15  1  0  0  0  0
 15 16  1  0  0  0  0
 15 17  1  0  0  0  0
 15 18  1  0  0  0  0
  1 19  1  0  0  0  0
  1 20  1  0  0  0  0
  2 21  1  0  0  0  0
  3 22  1  0  0  0  0
  4 23  1  0  0  0  0
  4 24  1  0  0  0  0
M  END
