 xtb: 6.7.1 (edcfbbe)
          04032521443D

 18 18  0     0  0            999 V2000
    1.9699    0.0001    0.6985 C   0  0  0  0  0  0  0  0  0  0  0  0
    1.1117    0.0000   -0.4704 N   0  0  0  0  0  0  0  0  0  0  0  0
    0.2799   -1.1870   -0.5980 C   0  0  0  0  0  0  0  0  0  0  0  0
   -0.9332   -1.1706    0.3414 C   0  0  0  0  0  0  0  0  0  0  0  0
   -1.7132    0.0000    0.1503 O   0  0  0  0  0  0  0  0  0  0  0  0
   -0.9332    1.1706    0.3415 C   0  0  0  0  0  0  0  0  0  0  0  0
    0.2799    1.1869   -0.5981 C   0  0  0  0  0  0  0  0  0  0  0  0
    1.4360   -0.0000    1.6582 H   0  0  0  0  0  0  0  0  0  0  0  0
    2.6039    0.8842    0.6570 H   0  0  0  0  0  0  0  0  0  0  0  0
    2.6040   -0.8839    0.6570 H   0  0  0  0  0  0  0  0  0  0  0  0
   -0.0802   -1.2195   -1.6308 H   0  0  0  0  0  0  0  0  0  0  0  0
    0.8864   -2.0722   -0.4060 H   0  0  0  0  0  0  0  0  0  0  0  0
   -1.5999   -2.0073    0.1315 H   0  0  0  0  0  0  0  0  0  0  0  0
   -0.6080   -1.2245    1.3911 H   0  0  0  0  0  0  0  0  0  0  0  0
   -1.5998    2.0074    0.1317 H   0  0  0  0  0  0  0  0  0  0  0  0
   -0.6079    1.2243    1.3912 H   0  0  0  0  0  0  0  0  0  0  0  0
   -0.0803    1.2193   -1.6309 H   0  0  0  0  0  0  0  0  0  0  0  0
    0.8863    2.0722   -0.4064 H   0  0  0  0  0  0  0  0  0  0  0  0
  1  2  1  0  0  0  0
  2  3  1  0  0  0  0
  3  4  1  0  0  0  0
  4  5  1  0  0  0  0
  5  6  1  0  0  0  0
  2  7  1  0  0  0  0
  6  7  1  0  0  0  0
  1  8  1  0  0  0  0
  1  9  1  0  0  0  0
  1 10  1  0  0  0  0
  3 11  1  0  0  0  0
  3 12  1  0  0  0  0
  4 13  1  0  0  0  0
  4 14  1  0  0  0  0
  6 15  1  0  0  0  0
  6 16  1  0  0  0  0
  7 17  1  0  0  0  0
  7 18  1  0  0  0  0
M  END
