 xtb: 6.7.1 (edcfbbe)
          04052509003D

 22 23  0     0  0            999 V2000
    1.5396    1.4022   -1.3963 C   0  0  0  0  0  0  0  0  0  0  0  0
    2.9098    1.5107   -1.5402 C   0  0  0  0  0  0  0  0  0  0  0  0
    3.7486    0.8154   -0.6828 C   0  0  0  0  0  0  0  0  0  0  0  0
    3.2162    0.0215    0.3301 C   0  0  0  0  0  0  0  0  0  0  0  0
    1.8345   -0.0804    0.4663 C   0  0  0  0  0  0  0  0  0  0  0  0
    0.9847    0.5988   -0.4058 C   0  0  0  0  0  0  0  0  0  0  0  0
   -0.4832    0.4781   -0.2768 C   0  0  0  0  0  0  0  0  0  0  0  0
   -1.2428    1.5911    0.0601 C   0  0  0  0  0  0  0  0  0  0  0  0
   -2.6170    1.4899    0.2011 C   0  0  0  0  0  0  0  0  0  0  0  0
   -3.2580    0.2688    0.0002 C   0  0  0  0  0  0  0  0  0  0  0  0
   -2.5053   -0.8474   -0.3588 C   0  0  0  0  0  0  0  0  0  0  0  0
   -1.1239   -0.7411   -0.5008 C   0  0  0  0  0  0  0  0  0  0  0  0
   -0.2213   -2.1219   -0.9931 Cl  0  0  0  0  0  0  0  0  0  0  0  0
   -3.2890   -2.3559   -0.6275 Cl  0  0  0  0  0  0  0  0  0  0  0  0
   -4.9630    0.1321    0.1848 Cl  0  0  0  0  0  0  0  0  0  0  0  0
   -3.5429    2.8734    0.6317 Cl  0  0  0  0  0  0  0  0  0  0  0  0
    1.1818   -1.0246    1.7566 Cl  0  0  0  0  0  0  0  0  0  0  0  0
    4.2581   -0.8294    1.4135 Cl  0  0  0  0  0  0  0  0  0  0  0  0
    5.4604    0.9339   -0.8578 Cl  0  0  0  0  0  0  0  0  0  0  0  0
    0.8827    1.9331   -2.0652 H   0  0  0  0  0  0  0  0  0  0  0  0
    3.3369    2.1277   -2.3128 H   0  0  0  0  0  0  0  0  0  0  0  0
   -0.7564    2.5380    0.2274 H   0  0  0  0  0  0  0  0  0  0  0  0
  1  2  4  0  0  0  0
  2  3  4  0  0  0  0
  3  4  4  0  0  0  0
  4  5  4  0  0  0  0
  1  6  4  0  0  0  0
  5  6  4  0  0  0  0
  6  7  1  0  0  0  0
  7  8  4  0  0  0  0
  8  9  4  0  0  0  0
  9 10  4  0  0  0  0
 10 11  4  0  0  0  0
  7 12  4  0  0  0  0
 11 12  4  0  0  0  0
 12 13  1  0  0  0  0
 11 14  1  0  0  0  0
 10 15  1  0  0  0  0
  9 16  1  0  0  0  0
  5 17  1  0  0  0  0
  4 18  1  0  0  0  0
  3 19  1  0  0  0  0
  1 20  1  0  0  0  0
  2 21  1  0  0  0  0
  8 22  1  0  0  0  0
M  END
