 xtb: 6.7.1 (edcfbbe)
          04062511443D

 27 27  0     0  0            999 V2000
    3.2507   -0.5146    0.7812 C   0  0  0  0  0  0  0  0  0  0  0  0
    1.8991   -0.3108    0.1909 C   0  0  0  0  0  0  0  0  0  0  0  0
    1.3007    0.8910    0.1769 C   0  0  0  0  0  0  0  0  0  0  0  0
   -0.0289    1.1334   -0.3495 C   0  0  0  0  0  0  0  0  0  0  0  0
   -0.5229    2.2591   -0.3642 O   0  0  0  0  0  0  0  0  0  0  0  0
   -0.8024   -0.0684   -0.8531 C   0  0  0  0  0  0  0  0  0  0  0  0
   -1.4173    0.2816   -1.6899 H   0  0  0  0  0  0  0  0  0  0  0  0
    0.1495   -1.1409   -1.3855 C   0  0  0  0  0  0  0  0  0  0  0  0
    1.2371   -1.5195   -0.3872 C   0  0  0  0  0  0  0  0  0  0  0  0
   -1.7888   -0.5677    0.2393 C   0  0  0  0  0  0  0  0  0  0  0  0
   -1.2777   -0.3906    1.6696 C   0  0  0  0  0  0  0  0  0  0  0  0
   -3.1191    0.1713    0.0968 C   0  0  0  0  0  0  0  0  0  0  0  0
    3.2316   -1.3500    1.4784 H   0  0  0  0  0  0  0  0  0  0  0  0
    3.5982    0.3766    1.2953 H   0  0  0  0  0  0  0  0  0  0  0  0
    3.9601   -0.7647   -0.0067 H   0  0  0  0  0  0  0  0  0  0  0  0
    1.7984    1.7614    0.5836 H   0  0  0  0  0  0  0  0  0  0  0  0
   -0.4234   -2.0245   -1.6709 H   0  0  0  0  0  0  0  0  0  0  0  0
    0.6265   -0.7476   -2.2869 H   0  0  0  0  0  0  0  0  0  0  0  0
    0.8115   -2.1112    0.4276 H   0  0  0  0  0  0  0  0  0  0  0  0
    1.9857   -2.1467   -0.8747 H   0  0  0  0  0  0  0  0  0  0  0  0
   -1.9626   -1.6344    0.0608 H   0  0  0  0  0  0  0  0  0  0  0  0
   -1.9968   -0.8156    2.3666 H   0  0  0  0  0  0  0  0  0  0  0  0
   -1.1664    0.6671    1.9031 H   0  0  0  0  0  0  0  0  0  0  0  0
   -0.3207   -0.8760    1.8283 H   0  0  0  0  0  0  0  0  0  0  0  0
   -3.8093   -0.1284    0.8818 H   0  0  0  0  0  0  0  0  0  0  0  0
   -3.5801   -0.0375   -0.8659 H   0  0  0  0  0  0  0  0  0  0  0  0
   -2.9542    1.2450    0.1737 H   0  0  0  0  0  0  0  0  0  0  0  0
  1  2  1  0  0  0  0
  2  3  2  0  0  0  0
  3  4  1  0  0  0  0
  4  5  2  0  0  0  0
  4  6  1  0  0  0  0
  6  7  1  0  0  0  0
  6  8  1  0  0  0  0
  2  9  1  0  0  0  0
  8  9  1  0  0  0  0
  6 10  1  0  0  0  0
 10 11  1  0  0  0  0
 10 12  1  0  0  0  0
  1 13  1  0  0  0  0
  1 14  1  0  0  0  0
  1 15  1  0  0  0  0
  3 16  1  0  0  0  0
  8 17  1  0  0  0  0
  8 18  1  0  0  0  0
  9 19  1  0  0  0  0
  9 20  1  0  0  0  0
 10 21  1  0  0  0  0
 11 22  1  0  0  0  0
 11 23  1  0  0  0  0
 11 24  1  0  0  0  0
 12 25  1  0  0  0  0
 12 26  1  0  0  0  0
 12 27  1  0  0  0  0
M  END
