15
 xtb: 6.7.1 (edcfbbe)
C           -1.01109848538770       -1.80627833284100       -0.00006497099547
C            0.36654275619864       -1.61013121192710        0.00008298079755
C            0.87337334376225       -0.30630463390048        0.00019899123466
C            0.01302808280336        0.79877162007663       -0.00004477503214
C           -1.35846349908743        0.58466981167760       -0.00009452324358
C           -1.87380599761668       -0.71783542881693       -0.00010427720017
O           -2.26635981763625        1.61260650750970       -0.00006825421203
C            2.32745411570709       -0.12342868481109        0.00099283448038
O            2.89374873544149        0.96397219234004       -0.00020450088104
H           -1.42036440255803       -2.81102728278606       -0.00010217998074
H            1.04932501236324       -2.45419723489375        0.00011173232402
H            0.41697329009123        1.80712246506459        0.00005150906316
H           -2.94978706476196       -0.85976258121266       -0.00014392498941
H           -1.79256455526288        2.45660068655207       -0.00003253391720
H            2.91623384900320       -1.06132684449052       -0.00090675864362
