 xtb: 6.7.1 (edcfbbe)
          04042519303D

 15 14  0     0  0            999 V2000
    0.7317   -1.4875   -0.0833 C   0  0  0  0  0  0  0  0  0  0  0  0
    0.5339   -0.0704    0.4591 C   0  0  0  0  0  0  0  0  0  0  0  0
    1.3069    0.9521   -0.3766 C   0  0  0  0  0  0  0  0  0  0  0  0
   -0.8421    0.2739    0.6238 O   0  0  0  0  0  0  0  0  0  0  0  0
   -1.6336    0.3183   -0.5469 C   0  0  0  0  0  0  0  0  0  0  0  0
    0.1014   -2.1856    0.4623 H   0  0  0  0  0  0  0  0  0  0  0  0
    0.4857   -1.5384   -1.1412 H   0  0  0  0  0  0  0  0  0  0  0  0
    1.7700   -1.7777    0.0435 H   0  0  0  0  0  0  0  0  0  0  0  0
    0.8977   -0.0319    1.4931 H   0  0  0  0  0  0  0  0  0  0  0  0
    1.0515    0.8682   -1.4302 H   0  0  0  0  0  0  0  0  0  0  0  0
    2.3719    0.7741   -0.2649 H   0  0  0  0  0  0  0  0  0  0  0  0
    1.0802    1.9591   -0.0349 H   0  0  0  0  0  0  0  0  0  0  0  0
   -1.2713    1.0718   -1.2513 H   0  0  0  0  0  0  0  0  0  0  0  0
   -2.6303    0.5938   -0.2088 H   0  0  0  0  0  0  0  0  0  0  0  0
   -1.6778   -0.6554   -1.0420 H   0  0  0  0  0  0  0  0  0  0  0  0
  1  2  1  0  0  0  0
  2  3  1  0  0  0  0
  2  4  1  0  0  0  0
  4  5  1  0  0  0  0
  1  6  1  0  0  0  0
  1  7  1  0  0  0  0
  1  8  1  0  0  0  0
  2  9  1  0  0  0  0
  3 10  1  0  0  0  0
  3 11  1  0  0  0  0
  3 12  1  0  0  0  0
  5 13  1  0  0  0  0
  5 14  1  0  0  0  0
  5 15  1  0  0  0  0
M  END
