 xtb: 6.7.1 (edcfbbe)
          04052503133D

 19 19  0     0  0            999 V2000
   -3.3632   -0.1542   -0.0481 C   0  0  0  0  0  0  0  0  0  0  0  0
   -2.1787    0.7970    0.0632 C   0  0  0  0  0  0  0  0  0  0  0  0
   -0.8177    0.1511    0.0059 C   0  0  0  0  0  0  0  0  0  0  0  0
   -0.6234   -1.2133   -0.1499 C   0  0  0  0  0  0  0  0  0  0  0  0
    0.6593   -1.7374   -0.1946 C   0  0  0  0  0  0  0  0  0  0  0  0
    1.7637   -0.9180   -0.0859 C   0  0  0  0  0  0  0  0  0  0  0  0
    1.5823    0.4535    0.0707 C   0  0  0  0  0  0  0  0  0  0  0  0
    0.2985    0.9751    0.1152 C   0  0  0  0  0  0  0  0  0  0  0  0
    2.6909    1.2395    0.1754 O   0  0  0  0  0  0  0  0  0  0  0  0
   -3.3555   -0.8788    0.7626 H   0  0  0  0  0  0  0  0  0  0  0  0
   -3.3459   -0.6855   -0.9966 H   0  0  0  0  0  0  0  0  0  0  0  0
   -4.2910    0.4102    0.0087 H   0  0  0  0  0  0  0  0  0  0  0  0
   -2.2528    1.3483    1.0051 H   0  0  0  0  0  0  0  0  0  0  0  0
   -2.2380    1.5344   -0.7427 H   0  0  0  0  0  0  0  0  0  0  0  0
   -1.4645   -1.8807   -0.2378 H   0  0  0  0  0  0  0  0  0  0  0  0
    0.7980   -2.8012   -0.3161 H   0  0  0  0  0  0  0  0  0  0  0  0
    2.7673   -1.3115   -0.1189 H   0  0  0  0  0  0  0  0  0  0  0  0
    0.1574    2.0408    0.2369 H   0  0  0  0  0  0  0  0  0  0  0  0
    2.4374    2.1689    0.2800 H   0  0  0  0  0  0  0  0  0  0  0  0
  1  2  1  0  0  0  0
  2  3  1  0  0  0  0
  3  4  4  0  0  0  0
  4  5  4  0  0  0  0
  5  6  4  0  0  0  0
  6  7  4  0  0  0  0
  3  8  4  0  0  0  0
  7  8  4  0  0  0  0
  7  9  1  0  0  0  0
  1 10  1  0  0  0  0
  1 11  1  0  0  0  0
  1 12  1  0  0  0  0
  2 13  1  0  0  0  0
  2 14  1  0  0  0  0
  4 15  1  0  0  0  0
  5 16  1  0  0  0  0
  6 17  1  0  0  0  0
  8 18  1  0  0  0  0
  9 19  1  0  0  0  0
M  END
