 xtb: 6.7.1 (edcfbbe)
          04052518533D

 23 23  0     0  0            999 V2000
   -2.6915   -0.4751    0.6412 C   0  0  0  0  0  0  0  0  0  0  0  0
   -1.4689   -0.0283   -0.1106 C   0  0  0  0  0  0  0  0  0  0  0  0
   -1.4123   -0.0817   -1.3229 O   0  0  0  0  0  0  0  0  0  0  0  0
   -0.3497    0.4977    0.7665 C   0  0  0  0  0  0  0  0  0  0  0  0
    0.5546    1.5162    0.0611 C   0  0  0  0  0  0  0  0  0  0  0  0
    1.4441    0.8835   -1.0065 C   0  0  0  0  0  0  0  0  0  0  0  0
    2.2633   -0.2622   -0.4226 C   0  0  0  0  0  0  0  0  0  0  0  0
    1.3322   -1.3063    0.1847 C   0  0  0  0  0  0  0  0  0  0  0  0
    0.4926   -0.6800    1.2925 C   0  0  0  0  0  0  0  0  0  0  0  0
   -3.2624    0.4126    0.9088 H   0  0  0  0  0  0  0  0  0  0  0  0
   -3.3104   -1.1084    0.0113 H   0  0  0  0  0  0  0  0  0  0  0  0
   -2.4227   -0.9922    1.5568 H   0  0  0  0  0  0  0  0  0  0  0  0
   -0.8210    0.9843    1.6267 H   0  0  0  0  0  0  0  0  0  0  0  0
   -0.0654    2.2906   -0.3961 H   0  0  0  0  0  0  0  0  0  0  0  0
    1.1859    1.9902    0.8165 H   0  0  0  0  0  0  0  0  0  0  0  0
    0.8193    0.5054   -1.8167 H   0  0  0  0  0  0  0  0  0  0  0  0
    2.1066    1.6464   -1.4208 H   0  0  0  0  0  0  0  0  0  0  0  0
    2.8751   -0.7159   -1.2043 H   0  0  0  0  0  0  0  0  0  0  0  0
    2.9330    0.1217    0.3509 H   0  0  0  0  0  0  0  0  0  0  0  0
    0.6775   -1.7016   -0.5957 H   0  0  0  0  0  0  0  0  0  0  0  0
    1.9118   -2.1371    0.5917 H   0  0  0  0  0  0  0  0  0  0  0  0
   -0.1557   -1.4345    1.7407 H   0  0  0  0  0  0  0  0  0  0  0  0
    1.1572   -0.2997    2.0708 H   0  0  0  0  0  0  0  0  0  0  0  0
  1  2  1  0  0  0  0
  2  3  2  0  0  0  0
  2  4  1  0  0  0  0
  4  5  1  0  0  0  0
  5  6  1  0  0  0  0
  6  7  1  0  0  0  0
  7  8  1  0  0  0  0
  4  9  1  0  0  0  0
  8  9  1  0  0  0  0
  1 10  1  0  0  0  0
  1 11  1  0  0  0  0
  1 12  1  0  0  0  0
  4 13  1  0  0  0  0
  5 14  1  0  0  0  0
  5 15  1  0  0  0  0
  6 16  1  0  0  0  0
  6 17  1  0  0  0  0
  7 18  1  0  0  0  0
  7 19  1  0  0  0  0
  8 20  1  0  0  0  0
  8 21  1  0  0  0  0
  9 22  1  0  0  0  0
  9 23  1  0  0  0  0
M  END
