 xtb: 6.7.1 (edcfbbe)
          04032521493D

 17 17  0     0  0            999 V2000
   -2.5626   -0.9703    0.0005 C   0  0  0  0  0  0  0  0  0  0  0  0
   -1.2349   -0.2829   -0.0007 C   0  0  0  0  0  0  0  0  0  0  0  0
   -1.1513    1.1091   -0.0004 C   0  0  0  0  0  0  0  0  0  0  0  0
    0.0970    1.7000    0.0002 C   0  0  0  0  0  0  0  0  0  0  0  0
    1.2348    1.0195    0.0005 N   0  0  0  0  0  0  0  0  0  0  0  0
    1.1715   -0.3073    0.0002 C   0  0  0  0  0  0  0  0  0  0  0  0
   -0.0429   -0.9906   -0.0004 C   0  0  0  0  0  0  0  0  0  0  0  0
    2.4698   -1.0520   -0.0000 C   0  0  0  0  0  0  0  0  0  0  0  0
   -3.1213   -0.6993    0.8947 H   0  0  0  0  0  0  0  0  0  0  0  0
   -3.1464   -0.6574   -0.8632 H   0  0  0  0  0  0  0  0  0  0  0  0
   -2.4419   -2.0496   -0.0260 H   0  0  0  0  0  0  0  0  0  0  0  0
   -2.0445    1.7141   -0.0007 H   0  0  0  0  0  0  0  0  0  0  0  0
    0.2052    2.7771    0.0004 H   0  0  0  0  0  0  0  0  0  0  0  0
   -0.0463   -2.0705   -0.0007 H   0  0  0  0  0  0  0  0  0  0  0  0
    3.2951   -0.3474    0.0087 H   0  0  0  0  0  0  0  0  0  0  0  0
    2.5338   -1.6939    0.8761 H   0  0  0  0  0  0  0  0  0  0  0  0
    2.5411   -1.6795   -0.8861 H   0  0  0  0  0  0  0  0  0  0  0  0
  1  2  1  0  0  0  0
  2  3  4  0  0  0  0
  3  4  4  0  0  0  0
  4  5  4  0  0  0  0
  5  6  4  0  0  0  0
  2  7  4  0  0  0  0
  6  7  4  0  0  0  0
  6  8  1  0  0  0  0
  1  9  1  0  0  0  0
  1 10  1  0  0  0  0
  1 11  1  0  0  0  0
  3 12  1  0  0  0  0
  4 13  1  0  0  0  0
  7 14  1  0  0  0  0
  8 15  1  0  0  0  0
  8 16  1  0  0  0  0
  8 17  1  0  0  0  0
M  END
