 xtb: 6.7.1 (edcfbbe)
          04042520223D

 16 16  0     0  0            999 V2000
    2.4734    1.2064   -0.0263 C   0  0  0  0  0  0  0  0  0  0  0  0
    1.6967   -0.0764    0.0013 C   0  0  0  0  0  0  0  0  0  0  0  0
    2.2497   -1.1641    0.0236 O   0  0  0  0  0  0  0  0  0  0  0  0
    0.2164    0.0236    0.0004 C   0  0  0  0  0  0  0  0  0  0  0  0
   -0.4840    1.2307   -0.0064 C   0  0  0  0  0  0  0  0  0  0  0  0
   -1.8675    1.1965   -0.0068 C   0  0  0  0  0  0  0  0  0  0  0  0
   -2.5030   -0.0372   -0.0001 C   0  0  0  0  0  0  0  0  0  0  0  0
   -1.8527   -1.1929    0.0062 N   0  0  0  0  0  0  0  0  0  0  0  0
   -0.5344   -1.1566    0.0063 C   0  0  0  0  0  0  0  0  0  0  0  0
    2.2162    1.7762   -0.9156 H   0  0  0  0  0  0  0  0  0  0  0  0
    3.5365    0.9816   -0.0324 H   0  0  0  0  0  0  0  0  0  0  0  0
    2.2333    1.8022    0.8508 H   0  0  0  0  0  0  0  0  0  0  0  0
    0.0331    2.1767   -0.0104 H   0  0  0  0  0  0  0  0  0  0  0  0
   -2.4445    2.1067   -0.0117 H   0  0  0  0  0  0  0  0  0  0  0  0
   -3.5813   -0.1140    0.0006 H   0  0  0  0  0  0  0  0  0  0  0  0
   -0.0242   -2.1110    0.0110 H   0  0  0  0  0  0  0  0  0  0  0  0
  1  2  1  0  0  0  0
  2  3  2  0  0  0  0
  2  4  1  0  0  0  0
  4  5  4  0  0  0  0
  5  6  4  0  0  0  0
  6  7  4  0  0  0  0
  7  8  4  0  0  0  0
  4  9  4  0  0  0  0
  8  9  4  0  0  0  0
  1 10  1  0  0  0  0
  1 11  1  0  0  0  0
  1 12  1  0  0  0  0
  5 13  1  0  0  0  0
  6 14  1  0  0  0  0
  7 15  1  0  0  0  0
  9 16  1  0  0  0  0
M  END
