 xtb: 6.7.1 (edcfbbe)
          04032522153D

 12 11  0     0  0            999 V2000
    1.7405   -0.3154   -0.2221 C   0  0  0  0  0  0  0  0  0  0  0  0
    0.5665    0.5860    0.1609 C   0  0  0  0  0  0  0  0  0  0  0  0
   -0.6781   -0.2129    0.3836 C   0  0  0  0  0  0  0  0  0  0  0  0
   -1.8062   -0.0487   -0.2812 C   0  0  0  0  0  0  0  0  0  0  0  0
    1.9275   -1.0495    0.5584 H   0  0  0  0  0  0  0  0  0  0  0  0
    2.6416    0.2757   -0.3643 H   0  0  0  0  0  0  0  0  0  0  0  0
    1.5232   -0.8450   -1.1468 H   0  0  0  0  0  0  0  0  0  0  0  0
    0.3960    1.3251   -0.6237 H   0  0  0  0  0  0  0  0  0  0  0  0
    0.8153    1.1188    1.0830 H   0  0  0  0  0  0  0  0  0  0  0  0
   -0.6022   -0.9784    1.1454 H   0  0  0  0  0  0  0  0  0  0  0  0
   -2.6774   -0.6514   -0.0888 H   0  0  0  0  0  0  0  0  0  0  0  0
   -1.9073    0.7037   -1.0463 H   0  0  0  0  0  0  0  0  0  0  0  0
  1  2  1  0  0  0  0
  2  3  1  0  0  0  0
  3  4  2  0  0  0  0
  1  5  1  0  0  0  0
  1  6  1  0  0  0  0
  1  7  1  0  0  0  0
  2  8  1  0  0  0  0
  2  9  1  0  0  0  0
  3 10  1  0  0  0  0
  4 11  1  0  0  0  0
  4 12  1  0  0  0  0
M  END
