 xtb: 6.7.1 (edcfbbe)
          04062518003D

 24 24  0     0  0            999 V2000
   -2.2883   -0.8915    0.8108 C   0  0  0  0  0  0  0  0  0  0  0  0
   -0.8338   -0.4064    0.7473 C   0  0  0  0  0  0  0  0  0  0  0  0
   -0.5368   -0.0659    1.7502 H   0  0  0  0  0  0  0  0  0  0  0  0
   -0.6292    0.7466   -0.2476 C   0  0  0  0  0  0  0  0  0  0  0  0
   -0.6841    0.3476   -1.2700 H   0  0  0  0  0  0  0  0  0  0  0  0
    0.7805    1.3063   -0.0172 C   0  0  0  0  0  0  0  0  0  0  0  0
    0.7344    1.9527    0.8736 H   0  0  0  0  0  0  0  0  0  0  0  0
    1.7767    0.1768    0.2990 C   0  0  0  0  0  0  0  0  0  0  0  0
    2.6877    0.3879   -0.2756 H   0  0  0  0  0  0  0  0  0  0  0  0
    1.2475   -1.1915   -0.1683 C   0  0  0  0  0  0  0  0  0  0  0  0
    1.9183   -1.9829    0.2040 H   0  0  0  0  0  0  0  0  0  0  0  0
   -0.0140   -1.5122    0.3713 O   0  0  0  0  0  0  0  0  0  0  0  0
    1.2261   -1.1870   -1.5609 O   0  0  0  0  0  0  0  0  0  0  0  0
    2.0170    0.1817    1.6829 O   0  0  0  0  0  0  0  0  0  0  0  0
    1.2581    2.0252   -1.1238 O   0  0  0  0  0  0  0  0  0  0  0  0
   -1.5455    1.7979   -0.0716 O   0  0  0  0  0  0  0  0  0  0  0  0
   -2.8879   -1.0262   -0.4538 O   0  0  0  0  0  0  0  0  0  0  0  0
   -2.8793   -0.1526    1.3543 H   0  0  0  0  0  0  0  0  0  0  0  0
   -2.3055   -1.8374    1.3621 H   0  0  0  0  0  0  0  0  0  0  0  0
    1.0664   -2.0823   -1.8980 H   0  0  0  0  0  0  0  0  0  0  0  0
    2.7897   -0.3634    1.8917 H   0  0  0  0  0  0  0  0  0  0  0  0
    0.6234    2.7276   -1.3301 H   0  0  0  0  0  0  0  0  0  0  0  0
   -2.4189    1.5037   -0.3695 H   0  0  0  0  0  0  0  0  0  0  0  0
   -2.4851   -1.7743   -0.9145 H   0  0  0  0  0  0  0  0  0  0  0  0
  1  2  1  0  0  0  0
  2  3  1  0  0  0  0
  2  4  1  0  0  0  0
  4  5  1  0  0  0  0
  4  6  1  0  0  0  0
  6  7  1  0  0  0  0
  6  8  1  0  0  0  0
  8  9  1  0  0  0  0
  8 10  1  0  0  0  0
 10 11  1  0  0  0  0
  2 12  1  0  0  0  0
 10 12  1  0  0  0  0
 10 13  1  0  0  0  0
  8 14  1  0  0  0  0
  6 15  1  0  0  0  0
  4 16  1  0  0  0  0
  1 17  1  0  0  0  0
  1 18  1  0  0  0  0
  1 19  1  0  0  0  0
 13 20  1  0  0  0  0
 14 21  1  0  0  0  0
 15 22  1  0  0  0  0
 16 23  1  0  0  0  0
 17 24  1  0  0  0  0
M  END
