24
 xtb: 6.7.1 (edcfbbe)
C           -2.41197140892579       -1.16440746501825       -0.30332212469279
C           -1.09964850986322       -0.62386145225335        0.25642833782114
H           -1.12876434220266       -0.62585206809063        1.35910710241029
C           -0.77694347276280        0.79045291613184       -0.23915840473682
H           -0.83205672694842        0.79815428273451       -1.34013860181123
C            0.62665852781095        1.20351481390160        0.18713328814077
H            0.64433913448333        1.29711977240974        1.28496731103624
C            1.64087787421134        0.15377475031508       -0.22560852957425
H            1.69403037782734        0.10131382149108       -1.32550659426054
C            1.20472229181191       -1.21697933879825        0.29914011425056
H            1.18515270958795       -1.22220480531314        1.39896307749718
O           -0.09321420826252       -1.53581271617511       -0.21170898186763
O            2.08579102475770       -2.23688941301584       -0.09050775165474
O            2.90633480587923        0.52091128587456        0.32614097568793
O            1.00368620038883        2.44732738620331       -0.41554313711371
O           -1.67544112458714        1.76012143256747        0.31363901389398
O           -3.53390509737423       -0.34561837213839        0.06126829536674
H           -2.55518065489656       -2.19681519911194        0.03841368302977
H           -2.36670534587240       -1.15930125723626       -1.39702854261637
H            2.23022315464110       -2.16674166475105       -1.04723402022154
H            3.55900609590076       -0.10723659535677       -0.01147804766007
H            0.40216250123849        3.12242096636030       -0.07439012989026
H           -2.57147042290223        1.40932399539312        0.17442018673033
H           -3.69123303655189       -0.46907589859759        1.00740254677853
