19
 xtb: 6.7.1 (edcfbbe)
C           -2.74496198908461       -0.25704349043002        0.00005336033781
C           -2.35297578706436        1.09828984039359        0.00010360928183
C           -1.01955590365483        1.43765398414852        0.00011337578605
C           -0.02355807478859        0.43233632672912        0.00007938085189
C           -0.41445516637394       -0.94528616306106        0.00004106522298
C           -1.79751556598051       -1.25336625633782        0.00002172202584
C            0.57684905783107       -1.95751368174022        0.00002873626200
C            1.90869538527600       -1.61743476251444        0.00004522305394
C            2.31326200887946       -0.26765066696343        0.00006781591339
C            1.36691035418368        0.73424501407382        0.00008059470299
O            1.70492968027316        2.06462941069995        0.00009717591734
H           -3.80037481392178       -0.51067655614403        0.00003808054768
H           -3.10924621890333        1.87669914445899        0.00013913826598
H           -0.72475891010236        2.48076575135686        0.00015073560335
H           -2.09591278009271       -2.29795379242957       -0.00002317634070
H            0.26705711230499       -2.99794961595987        0.00000738575113
H            2.66958741375446       -2.39168379097422        0.00004913915712
H            3.36865948039708       -0.00971776678475        0.00007963996143
H            2.66949918897319        2.14200478206182        0.00005671174753
