16
CONF1
C -2.6947704482 -0.9668869733 0.0011134034
S -1.8220256791 0.6279702526 -0.0005037443
C -0.1072885451 0.1892888065 -0.0000527147
C 0.7961495195 1.2492241409 0.0001935776
C 2.1540233953 1.0015692942 0.0004847983
C 2.6247969651 -0.3028256462 0.0004132982
C 1.7248659541 -1.3536009872 -0.0003719538
C 0.3603687983 -1.1166292342 -0.0006498320
H -2.4441170464 -1.5206158418 0.9002341370
H -2.4452590186 -1.5219112004 -0.8975137545
H -3.7498828812 -0.7138101299 0.0015899176
H 0.4175802404 2.2604660903 -0.0000747548
H 2.8467699627 1.8292722259 0.0002542892
H 3.6861674859 -0.4967493985 0.0005649815
H 2.0817054043 -2.3725970356 -0.0009473189
H -0.3205771330 -1.9518683889 -0.0015543806
16
CONF2
C -2.5141103838 -0.2079030567 1.0139835256
S -1.8508277346 0.2390360072 -0.6255746871
C -0.1044167526 0.0749821333 -0.2504423382
C 0.5988373662 1.1703970367 0.2220615609
C 1.9437058484 1.0369526498 0.5215543431
C 2.5770721977 -0.1823263856 0.3443383291
C 1.8680159129 -1.2713905181 -0.1355862620
C 0.5229453622 -1.1453729017 -0.4373123304
H -2.1500063919 0.5004188991 1.7512862113
H -2.2050537482 -1.2186364547 1.2606036543
H -3.5935370558 -0.1494201566 0.9300018591
H 0.0923287398 2.1151387196 0.3492267783
H 2.4959260284 1.8872469631 0.8912990153
H 3.6257689509 -0.2833070616 0.5780736446
H 2.3610359513 -2.2207769038 -0.2779107619
H -0.0418222777 -1.9829989903 -0.8175933713
