16
CONF1
C -2.6907626766 -0.9693604893 0.0009576932
S -1.8421095188 0.6433069918 -0.0004151735
C -0.1186796416 0.2058948849 -0.0002569639
C 0.8001959256 1.2660716140 0.0000932671
C 2.1644383268 1.0061275703 0.0002179506
C 2.6363033803 -0.3068533254 0.0000173570
C 1.7231533820 -1.3564356362 -0.0003536068
C 0.3507009166 -1.1110657257 -0.0005016504
H -2.4522706454 -1.5440382421 0.8993088601
H -2.4534418525 -1.5450739128 -0.8970339514
H -3.7593523734 -0.7395691100 0.0015217919
H 0.4465284579 2.2933303684 0.0003154027
H 2.8630678299 1.8372046935 0.0005275278
H 3.7027090286 -0.5064114640 0.0001599438
H 2.0742376206 -2.3839269473 -0.0005469017
H -0.3362107191 -1.9489054808 -0.0008316601
16
CONF2
C -2.5597292084 -0.2073444880 1.0125289377
S -1.8552871307 0.2420821945 -0.6251662615
C -0.1073628157 0.0749554521 -0.2457278776
C 0.6139057556 1.1746134625 0.2251641557
C 1.9700454985 1.0436439074 0.5143169427
C 2.6104261738 -0.1798034019 0.3315416036
C 1.8923156046 -1.2747032581 -0.1438606127
C 0.5360074251 -1.1504362292 -0.4351173501
H -2.2230516483 0.4956197065 1.7782589204
H -2.2763941497 -1.2274410746 1.2828978647
H -3.6473655306 -0.1467270689 0.9184497107
H 0.1150351242 2.1280563783 0.3658320530
H 2.5257295631 1.9011501605 0.8808074010
H 3.6673140534 -0.2794427596 0.5574300747
H 2.3873321234 -2.2294185371 -0.2916961735
H -0.0230716581 -2.0027639891 -0.8076345855
