 xtb: 6.7.1 (edcfbbe)
          04042518063D

 13 12  0     0  0            999 V2000
   -1.9651   -0.1404   -0.0523 C   0  0  0  0  0  0  0  0  0  0  0  0
   -0.6106    0.5566   -0.0549 C   0  0  0  0  0  0  0  0  0  0  0  0
    0.5401   -0.4396    0.0709 C   0  0  0  0  0  0  0  0  0  0  0  0
    1.8210    0.2506   -0.0207 N   0  0  0  0  0  0  0  0  0  0  0  0
   -2.0386   -0.8317   -0.8884 H   0  0  0  0  0  0  0  0  0  0  0  0
   -2.1037   -0.7016    0.8693 H   0  0  0  0  0  0  0  0  0  0  0  0
   -2.7665    0.5888   -0.1356 H   0  0  0  0  0  0  0  0  0  0  0  0
   -0.5608    1.2649    0.7755 H   0  0  0  0  0  0  0  0  0  0  0  0
   -0.4808    1.1191   -0.9801 H   0  0  0  0  0  0  0  0  0  0  0  0
    0.4225   -1.0072    1.0111 H   0  0  0  0  0  0  0  0  0  0  0  0
    0.4933   -1.1547   -0.7557 H   0  0  0  0  0  0  0  0  0  0  0  0
    2.5787   -0.4163    0.0731 H   0  0  0  0  0  0  0  0  0  0  0  0
    1.9032    0.9150    0.7420 H   0  0  0  0  0  0  0  0  0  0  0  0
  1  2  1  0  0  0  0
  2  3  1  0  0  0  0
  3  4  1  0  0  0  0
  1  5  1  0  0  0  0
  1  6  1  0  0  0  0
  1  7  1  0  0  0  0
  2  8  1  0  0  0  0
  2  9  1  0  0  0  0
  3 10  1  0  0  0  0
  3 11  1  0  0  0  0
  4 12  1  0  0  0  0
  4 13  1  0  0  0  0
M  END
