13
CONF2
C 1.3338845789 1.2366088597 0.2081544324
C 0.4904516070 0.1186566520 -0.4108764793
C 0.9141307404 -1.2624620559 0.0785799923
C -0.9639560675 0.3757116328 -0.1592872273
O -1.7732418847 -0.4335665024 0.2236944184
H 1.2341008502 1.2269866962 1.2907915268
H 1.0195872237 2.2086343058 -0.1624852232
H 2.3800681606 1.0893090605 -0.0428964033
H 0.6049150028 0.1685554385 -1.5017638015
H 1.9446410192 -1.4642826325 -0.1979231317
H 0.2738175440 -2.0268433569 -0.3547743808
H 0.8219188402 -1.3200157353 1.1606642172
H -1.2770163703 1.4169340193 -0.3650191532
13
CONF1
C 1.2046662950 1.2611533200 0.0528100434
C 0.4330157754 -0.0001416561 -0.3458051135
C 1.2103575463 -1.2580162581 0.0521357776
C -0.8823773019 -0.0024502564 0.3680985350
O -1.9705852217 -0.0007958955 -0.1544952094
H 2.1673866166 1.2726105230 -0.4499391106
H 1.3711251927 1.2799484598 1.1269426815
H 0.6526420095 2.1537198689 -0.2310664593
H 0.2489863942 -0.0000898070 -1.4238876541
H 2.1731219824 -1.2649816381 -0.4506273292
H 0.6623991867 -2.1529694180 -0.2320794910
H 1.3769563269 -1.2765583018 1.1262483380
H -0.7958662482 -0.0055422148 1.4705696815
