 xtb: 6.7.1 (edcfbbe)
          04062518003D

 24 24  0     0  0            999 V2000
   -2.3390   -0.7763    0.7213 C   0  0  0  0  0  0  0  0  0  0  0  0
   -0.8697   -0.3251    0.7524 C   0  0  0  0  0  0  0  0  0  0  0  0
   -0.6033   -0.0417    1.7805 H   0  0  0  0  0  0  0  0  0  0  0  0
   -0.6274    0.8791   -0.1743 C   0  0  0  0  0  0  0  0  0  0  0  0
   -0.8881    0.5860   -1.1977 H   0  0  0  0  0  0  0  0  0  0  0  0
    0.8580    1.3052   -0.1255 C   0  0  0  0  0  0  0  0  0  0  0  0
    0.9681    2.1202    0.5993 H   0  0  0  0  0  0  0  0  0  0  0  0
    1.7595    0.1485    0.3574 C   0  0  0  0  0  0  0  0  0  0  0  0
    2.7504    0.2951   -0.0932 H   0  0  0  0  0  0  0  0  0  0  0  0
    1.1874   -1.1773   -0.1668 C   0  0  0  0  0  0  0  0  0  0  0  0
    1.8132   -2.0249    0.1544 H   0  0  0  0  0  0  0  0  0  0  0  0
   -0.0845   -1.4525    0.3609 O   0  0  0  0  0  0  0  0  0  0  0  0
    1.1709   -1.0787   -1.5595 O   0  0  0  0  0  0  0  0  0  0  0  0
    1.8241    0.1814    1.7588 O   0  0  0  0  0  0  0  0  0  0  0  0
    1.3055    1.8278   -1.3468 O   0  0  0  0  0  0  0  0  0  0  0  0
   -1.4914    1.9420    0.1315 O   0  0  0  0  0  0  0  0  0  0  0  0
   -2.6934   -1.3681   -0.5009 O   0  0  0  0  0  0  0  0  0  0  0  0
   -2.9793    0.0992    0.8379 H   0  0  0  0  0  0  0  0  0  0  0  0
   -2.5124   -1.4735    1.5499 H   0  0  0  0  0  0  0  0  0  0  0  0
    0.9196   -1.9249   -1.9590 H   0  0  0  0  0  0  0  0  0  0  0  0
    2.5170   -0.4146    2.0782 H   0  0  0  0  0  0  0  0  0  0  0  0
    1.2651    1.1290   -2.0188 H   0  0  0  0  0  0  0  0  0  0  0  0
   -1.2596    2.3142    0.9948 H   0  0  0  0  0  0  0  0  0  0  0  0
   -2.1152   -2.1332   -0.6350 H   0  0  0  0  0  0  0  0  0  0  0  0
  1  2  1  0  0  0  0
  2  3  1  0  0  0  0
  2  4  1  0  0  0  0
  4  5  1  0  0  0  0
  4  6  1  0  0  0  0
  6  7  1  0  0  0  0
  6  8  1  0  0  0  0
  8  9  1  0  0  0  0
  8 10  1  0  0  0  0
 10 11  1  0  0  0  0
  2 12  1  0  0  0  0
 10 12  1  0  0  0  0
 10 13  1  0  0  0  0
  8 14  1  0  0  0  0
  6 15  1  0  0  0  0
  4 16  1  0  0  0  0
  1 17  1  0  0  0  0
  1 18  1  0  0  0  0
  1 19  1  0  0  0  0
 13 20  1  0  0  0  0
 14 21  1  0  0  0  0
 15 22  1  0  0  0  0
 16 23  1  0  0  0  0
 17 24  1  0  0  0  0
M  END
