 xtb: 6.7.1 (edcfbbe)
          04032521553D

 17 17  0     0  0            999 V2000
    2.8861   -0.0615   -0.0007 C   0  0  0  0  0  0  0  0  0  0  0  0
    1.3916   -0.0043    0.0004 C   0  0  0  0  0  0  0  0  0  0  0  0
    0.7126    1.2128    0.0000 C   0  0  0  0  0  0  0  0  0  0  0  0
   -0.6678    1.2221   -0.0001 C   0  0  0  0  0  0  0  0  0  0  0  0
   -1.3550    0.0083    0.0001 C   0  0  0  0  0  0  0  0  0  0  0  0
   -0.7135   -1.1537    0.0006 N   0  0  0  0  0  0  0  0  0  0  0  0
    0.6107   -1.1518    0.0007 C   0  0  0  0  0  0  0  0  0  0  0  0
   -2.8510   -0.0340   -0.0005 C   0  0  0  0  0  0  0  0  0  0  0  0
    3.2802    0.4269   -0.8905 H   0  0  0  0  0  0  0  0  0  0  0  0
    3.2834    0.4583    0.8695 H   0  0  0  0  0  0  0  0  0  0  0  0
    3.2319   -1.0913    0.0165 H   0  0  0  0  0  0  0  0  0  0  0  0
    1.2681    2.1400   -0.0000 H   0  0  0  0  0  0  0  0  0  0  0  0
   -1.2164    2.1516   -0.0002 H   0  0  0  0  0  0  0  0  0  0  0  0
    1.0697   -2.1330    0.0012 H   0  0  0  0  0  0  0  0  0  0  0  0
   -3.1873   -1.0658    0.0072 H   0  0  0  0  0  0  0  0  0  0  0  0
   -3.2411    0.4792    0.8761 H   0  0  0  0  0  0  0  0  0  0  0  0
   -3.2395    0.4648   -0.8861 H   0  0  0  0  0  0  0  0  0  0  0  0
  1  2  1  0  0  0  0
  2  3  4  0  0  0  0
  3  4  4  0  0  0  0
  4  5  4  0  0  0  0
  5  6  4  0  0  0  0
  2  7  4  0  0  0  0
  6  7  4  0  0  0  0
  5  8  1  0  0  0  0
  1  9  1  0  0  0  0
  1 10  1  0  0  0  0
  1 11  1  0  0  0  0
  3 12  1  0  0  0  0
  4 13  1  0  0  0  0
  7 14  1  0  0  0  0
  8 15  1  0  0  0  0
  8 16  1  0  0  0  0
  8 17  1  0  0  0  0
M  END
