22
 xtb: 6.7.1 (edcfbbe)
C            0.74051866036387        0.00022105831715       -0.00349834179493
C            1.45115086187278        0.83076264423478       -0.87030488449440
C            2.84739462207323        0.83783348787387       -0.87876430939125
C            3.54347268393778        0.00120042579944        0.00105703788400
C            2.84517480444889       -0.83639090426433        0.87820430173944
C            1.44900409893421       -0.83039284079627        0.86511356268971
Cl           0.55966205766245       -1.86429393609492        1.93542142909002
Cl           3.70323247882918       -1.86882121357827        1.96477523576389
Cl           5.27027993056609        0.00241014355213        0.00445766001228
Cl           3.70831641203376        1.87086544569172       -1.96249286415374
Cl           0.56441318459415        1.86394610349773       -1.94342826514224
C           -0.74051463183942        0.00091124755492       -0.00350714327987
C           -1.44918051422131        0.83123297832017        0.86522438117912
C           -2.84535349809829        0.83642083158154        0.87878368954167
C           -3.54346659543666       -0.00166430602179        0.00195983193236
C           -2.84720526670516       -0.83783107262292       -0.87815877709567
C           -1.45096631628078       -0.82994688430416       -0.87017126033818
Cl          -0.56400700376580       -1.86263920763496       -1.94359241470857
Cl          -3.70788714099286       -1.87138750958093       -1.96157602748418
Cl          -5.27027138966283       -0.00411652065407        0.00615003622079
Cl          -3.70364759543835        1.86836501038434        1.96563027711987
Cl          -0.56006261812607        1.86565364009955        1.93520790292918
