 xtb: 6.7.1 (edcfbbe)
          04032520533D

 24 24  0     0  0            999 V2000
    2.3525   -0.6540    0.1705 C   0  0  0  0  0  0  0  0  0  0  0  0
    0.8616   -0.5050    0.4671 C   0  0  0  0  0  0  0  0  0  0  0  0
    0.6873   -0.8562    1.4923 H   0  0  0  0  0  0  0  0  0  0  0  0
    0.0317   -1.3859   -0.4688 C   0  0  0  0  0  0  0  0  0  0  0  0
   -1.4532   -1.2982   -0.1307 C   0  0  0  0  0  0  0  0  0  0  0  0
   -1.9318    0.1482   -0.1969 C   0  0  0  0  0  0  0  0  0  0  0  0
   -1.1034    1.0245    0.7381 C   0  0  0  0  0  0  0  0  0  0  0  0
    0.3956    0.9616    0.4186 C   0  0  0  0  0  0  0  0  0  0  0  0
    0.9262    1.5024    1.2129 H   0  0  0  0  0  0  0  0  0  0  0  0
    0.7166    1.6681   -0.8981 C   0  0  0  0  0  0  0  0  0  0  0  0
    2.9356    0.0227    0.7912 H   0  0  0  0  0  0  0  0  0  0  0  0
    2.6746   -1.6722    0.3773 H   0  0  0  0  0  0  0  0  0  0  0  0
    2.5640   -0.4390   -0.8736 H   0  0  0  0  0  0  0  0  0  0  0  0
    0.1906   -1.0789   -1.5040 H   0  0  0  0  0  0  0  0  0  0  0  0
    0.3689   -2.4211   -0.3789 H   0  0  0  0  0  0  0  0  0  0  0  0
   -2.0297   -1.9153   -0.8231 H   0  0  0  0  0  0  0  0  0  0  0  0
   -1.6166   -1.6858    0.8782 H   0  0  0  0  0  0  0  0  0  0  0  0
   -1.8478    0.5151   -1.2208 H   0  0  0  0  0  0  0  0  0  0  0  0
   -2.9844    0.2043    0.0890 H   0  0  0  0  0  0  0  0  0  0  0  0
   -1.4467    2.0594    0.6763 H   0  0  0  0  0  0  0  0  0  0  0  0
   -1.2584    0.6852    1.7657 H   0  0  0  0  0  0  0  0  0  0  0  0
    1.7908    1.7628   -1.0304 H   0  0  0  0  0  0  0  0  0  0  0  0
    0.2891    2.6686   -0.8902 H   0  0  0  0  0  0  0  0  0  0  0  0
    0.3112    1.1332   -1.7514 H   0  0  0  0  0  0  0  0  0  0  0  0
  1  2  1  0  0  0  0
  2  3  1  0  0  0  0
  2  4  1  0  0  0  0
  4  5  1  0  0  0  0
  5  6  1  0  0  0  0
  6  7  1  0  0  0  0
  2  8  1  0  0  0  0
  7  8  1  0  0  0  0
  8  9  1  0  0  0  0
  8 10  1  0  0  0  0
  1 11  1  0  0  0  0
  1 12  1  0  0  0  0
  1 13  1  0  0  0  0
  4 14  1  0  0  0  0
  4 15  1  0  0  0  0
  5 16  1  0  0  0  0
  5 17  1  0  0  0  0
  6 18  1  0  0  0  0
  6 19  1  0  0  0  0
  7 20  1  0  0  0  0
  7 21  1  0  0  0  0
 10 22  1  0  0  0  0
 10 23  1  0  0  0  0
 10 24  1  0  0  0  0
M  END
