14
CONF1
C 2.4406672244 0.0335297896 0.0002987187
C 0.9422521095 -0.0083260060 -0.0001947815
C 0.2425581160 -1.2171058684 -0.0000546966
C -1.1454994772 -1.2022725699 0.0001772447
C -1.8013441237 0.0237026626 0.0001761267
N -1.1577444375 1.1988785962 -0.0001336740
C 0.1834555138 1.1622343792 -0.0003104813
H 2.8065978098 1.0630600052 -0.0077242893
H 2.8438909594 -0.4687752326 0.8859360754
H 2.8450695950 -0.4833534095 -0.8762900959
H 0.7853818641 -2.1585176066 -0.0000579912
H -1.7154572680 -2.1254603659 0.0002663081
H -2.8882795070 0.0647703051 0.0002828673
H 0.6898327794 2.1264622152 -0.0007212144
