18
 xtb: 6.7.1 (edcfbbe)
C           -2.06670435510749       -0.11038266475037       -0.39713740122265
C           -0.82169895277808        0.00368670744709        0.47881993838467
C            0.13781039710988       -1.20926819274528        0.31497980948650
C            1.33099208907782       -0.67510268007945       -0.48782702859668
C            1.48699130388363        0.74939707666239        0.05153842789077
C            0.03687575782661        1.24673432106982        0.10982159143069
H           -1.78498783502018       -0.24452722006622       -1.44877710153822
H           -2.68831575978511       -0.96333537164355       -0.10286706137118
H           -2.68283819061711        0.79377757456851       -0.32969519831080
H           -1.14162583410259        0.07518551691475        1.52448861044669
H            0.48814363509340       -1.54700853414969        1.29705041582709
H           -0.35610682147738       -2.06003346834125       -0.16639417569980
H            2.23161043950364       -1.28706087215441       -0.37488662389302
H            1.08330931235090       -0.63626050304971       -1.55645716168042
H            1.91945328809546        0.71426164915804        1.05973906686171
H            2.13083034075453        1.38292897970631       -0.56707965735905
H           -0.10444909937878        2.07501480708770        0.81114542955487
H           -0.26058423451894        1.60742973559023       -0.88318992860452
