 xtb: 6.7.1 (edcfbbe)
          04032520553D

 14 14  0     0  0            999 V2000
   -1.8540    0.0000   -0.0054 C   0  0  0  0  0  0  0  0  0  0  0  0
   -1.1536   -1.1956   -0.0012 C   0  0  0  0  0  0  0  0  0  0  0  0
    0.2267   -1.2005    0.0084 C   0  0  0  0  0  0  0  0  0  0  0  0
    0.9423   -0.0000    0.0118 C   0  0  0  0  0  0  0  0  0  0  0  0
    0.2267    1.2005    0.0084 C   0  0  0  0  0  0  0  0  0  0  0  0
   -1.1536    1.1956   -0.0012 C   0  0  0  0  0  0  0  0  0  0  0  0
    2.3159   -0.0000   -0.0512 N   0  0  0  0  0  0  0  0  0  0  0  0
   -2.9335    0.0000   -0.0105 H   0  0  0  0  0  0  0  0  0  0  0  0
   -1.6895   -2.1339   -0.0023 H   0  0  0  0  0  0  0  0  0  0  0  0
    0.7656   -2.1372    0.0119 H   0  0  0  0  0  0  0  0  0  0  0  0
    0.7656    2.1372    0.0119 H   0  0  0  0  0  0  0  0  0  0  0  0
   -1.6895    2.1339   -0.0024 H   0  0  0  0  0  0  0  0  0  0  0  0
    2.7768   -0.8501    0.2268 H   0  0  0  0  0  0  0  0  0  0  0  0
    2.7768    0.8502    0.2268 H   0  0  0  0  0  0  0  0  0  0  0  0
  1  2  4  0  0  0  0
  2  3  4  0  0  0  0
  3  4  4  0  0  0  0
  4  5  4  0  0  0  0
  1  6  4  0  0  0  0
  5  6  4  0  0  0  0
  4  7  1  0  0  0  0
  1  8  1  0  0  0  0
  2  9  1  0  0  0  0
  3 10  1  0  0  0  0
  5 11  1  0  0  0  0
  6 12  1  0  0  0  0
  7 13  1  0  0  0  0
  7 14  1  0  0  0  0
M  END
