18
 xtb: 6.7.1 (edcfbbe)
C           -1.84318425583291        0.02366957255610       -0.63309593592323
C           -0.85687102537134       -0.04620779598726        0.53322852980786
C            0.10997219680240       -1.24751167121914        0.39825420398002
C            1.40034625495513       -0.69898955608176       -0.27567285611626
C            1.15841659505127        0.80967473885727       -0.49048442244846
C            0.09459299018946        1.16288685153985        0.55463062100284
H           -2.47518737399554        0.91635294845942       -0.56497446169489
H           -1.32181684712815        0.05223056096479       -1.59659727384019
H           -2.49954293434999       -0.85337567780695       -0.64085403078715
H           -1.42745414838738       -0.10969122258633        1.46711047083865
H            0.34598099983230       -1.65465764894984        1.38659971365286
H           -0.34640145455693       -2.05679660254929       -0.18110626489532
H            2.26033225781266       -0.84983242168379        0.38471522074522
H            1.62689195238953       -1.21143377588161       -1.21519366111445
H            2.07289538178745        1.40087744749343       -0.38185570804068
H            0.76914150915064        0.99684152096185       -1.49720971671135
H            0.56472185240059        1.24112945689564        1.54326465816650
H           -0.41779029511930        2.10927778045771        0.34985458523574
