10
CONF1
C -1.6381773979 -0.5027157500 -0.0000185669
C -0.6150595093 0.6418037452 -0.0001055098
C 0.7577801032 0.1614995054 -0.0003968503
C 1.8860549599 -0.2684658375 0.0013045229
H -1.5182951230 -1.1305451493 0.8871484494
H -1.5184315698 -1.1305433297 -0.8872060835
H -2.6519551400 -0.0928079373 0.0000667048
H -0.7680331729 1.2797709180 0.8784991212
H -0.7682330777 1.2798219699 -0.8786402061
H 2.8863780479 -0.6403415800 -0.0007125212
