 xtb: 6.7.1 (edcfbbe)
          04062518003D

 24 24  0     0  0            999 V2000
   -2.4344   -1.0921   -0.3102 C   0  0  0  0  0  0  0  0  0  0  0  0
   -1.0784   -0.5954    0.2111 C   0  0  0  0  0  0  0  0  0  0  0  0
   -1.1185   -0.5544    1.3116 H   0  0  0  0  0  0  0  0  0  0  0  0
   -0.7377    0.8040   -0.3201 C   0  0  0  0  0  0  0  0  0  0  0  0
   -0.7126    0.7566   -1.4225 H   0  0  0  0  0  0  0  0  0  0  0  0
    0.6524    1.2302    0.1862 C   0  0  0  0  0  0  0  0  0  0  0  0
    0.6260    1.3243    1.2784 H   0  0  0  0  0  0  0  0  0  0  0  0
    1.6830    0.1638   -0.1905 C   0  0  0  0  0  0  0  0  0  0  0  0
    1.7753    0.1115   -1.2878 H   0  0  0  0  0  0  0  0  0  0  0  0
    1.1937   -1.2166    0.2910 C   0  0  0  0  0  0  0  0  0  0  0  0
    1.1675   -1.2108    1.4016 H   0  0  0  0  0  0  0  0  0  0  0  0
   -0.0915   -1.5183   -0.2021 O   0  0  0  0  0  0  0  0  0  0  0  0
    2.0780   -2.1628   -0.1864 O   0  0  0  0  0  0  0  0  0  0  0  0
    2.9134    0.4892    0.3968 O   0  0  0  0  0  0  0  0  0  0  0  0
    0.9703    2.5139   -0.2870 O   0  0  0  0  0  0  0  0  0  0  0  0
   -1.7241    1.7124    0.0972 O   0  0  0  0  0  0  0  0  0  0  0  0
   -3.5134   -0.4805    0.3410 O   0  0  0  0  0  0  0  0  0  0  0  0
   -2.5128   -2.1630   -0.1117 H   0  0  0  0  0  0  0  0  0  0  0  0
   -2.4828   -0.9318   -1.3953 H   0  0  0  0  0  0  0  0  0  0  0  0
    1.7037   -3.0502   -0.0729 H   0  0  0  0  0  0  0  0  0  0  0  0
    3.5483   -0.2189    0.2096 H   0  0  0  0  0  0  0  0  0  0  0  0
    1.3147    2.4637   -1.1904 H   0  0  0  0  0  0  0  0  0  0  0  0
   -1.3584    2.6101    0.0365 H   0  0  0  0  0  0  0  0  0  0  0  0
   -3.3971    0.4828    0.2893 H   0  0  0  0  0  0  0  0  0  0  0  0
  1  2  1  0  0  0  0
  2  3  1  0  0  0  0
  2  4  1  0  0  0  0
  4  5  1  0  0  0  0
  4  6  1  0  0  0  0
  6  7  1  0  0  0  0
  6  8  1  0  0  0  0
  8  9  1  0  0  0  0
  8 10  1  0  0  0  0
 10 11  1  0  0  0  0
  2 12  1  0  0  0  0
 10 12  1  0  0  0  0
 10 13  1  0  0  0  0
  8 14  1  0  0  0  0
  6 15  1  0  0  0  0
  4 16  1  0  0  0  0
  1 17  1  0  0  0  0
  1 18  1  0  0  0  0
  1 19  1  0  0  0  0
 13 20  1  0  0  0  0
 14 21  1  0  0  0  0
 15 22  1  0  0  0  0
 16 23  1  0  0  0  0
 17 24  1  0  0  0  0
M  END
