 xtb: 6.7.1 (edcfbbe)
          04032522133D

 11 10  0     0  0            999 V2000
    1.6761   -1.0989    0.0026 C   0  0  0  0  0  0  0  0  0  0  0  0
    1.0519    0.2917   -0.0037 C   0  0  0  0  0  0  0  0  0  0  0  0
   -0.4577    0.3475   -0.0004 C   0  0  0  0  0  0  0  0  0  0  0  0
   -1.0585    1.4018   -0.0006 O   0  0  0  0  0  0  0  0  0  0  0  0
   -1.1344   -0.7937    0.0018 O   0  0  0  0  0  0  0  0  0  0  0  0
    2.7580   -0.9987    0.0020 H   0  0  0  0  0  0  0  0  0  0  0  0
    1.3997   -1.6535    0.8966 H   0  0  0  0  0  0  0  0  0  0  0  0
    1.3998   -1.6617   -0.8863 H   0  0  0  0  0  0  0  0  0  0  0  0
    1.3803    0.8654    0.8660 H   0  0  0  0  0  0  0  0  0  0  0  0
    1.3763    0.8553   -0.8814 H   0  0  0  0  0  0  0  0  0  0  0  0
   -0.5587   -1.5820    0.0009 H   0  0  0  0  0  0  0  0  0  0  0  0
  1  2  1  0  0  0  0
  2  3  1  0  0  0  0
  3  4  2  0  0  0  0
  3  5  1  0  0  0  0
  1  6  1  0  0  0  0
  1  7  1  0  0  0  0
  1  8  1  0  0  0  0
  2  9  1  0  0  0  0
  2 10  1  0  0  0  0
  5 11  1  0  0  0  0
M  END
