 xtb: 6.7.1 (edcfbbe)
          04052516073D

 27 27  0     0  0            999 V2000
   -2.5287    0.1169   -1.4307 C   0  0  0  0  0  0  0  0  0  0  0  0
   -2.0502    0.4579   -0.0116 C   0  0  0  0  0  0  0  0  0  0  0  0
   -2.9365    0.6315    0.6071 H   0  0  0  0  0  0  0  0  0  0  0  0
   -1.1369    1.7005    0.0025 C   0  0  0  0  0  0  0  0  0  0  0  0
    0.2955    1.3682    0.4115 C   0  0  0  0  0  0  0  0  0  0  0  0
    0.7952    0.1793   -0.4109 C   0  0  0  0  0  0  0  0  0  0  0  0
    0.5803    0.3847   -1.4638 H   0  0  0  0  0  0  0  0  0  0  0  0
    0.0165   -1.0710    0.0294 C   0  0  0  0  0  0  0  0  0  0  0  0
   -1.3681   -0.7734    0.5346 C   0  0  0  0  0  0  0  0  0  0  0  0
   -1.9334   -1.5206    1.3130 O   0  0  0  0  0  0  0  0  0  0  0  0
    2.2817   -0.0579   -0.2820 C   0  0  0  0  0  0  0  0  0  0  0  0
    3.0247   -0.3107   -1.3486 C   0  0  0  0  0  0  0  0  0  0  0  0
    2.8697    0.0022    1.0949 C   0  0  0  0  0  0  0  0  0  0  0  0
   -1.6853   -0.0583   -2.0922 H   0  0  0  0  0  0  0  0  0  0  0  0
   -3.1516   -0.7753   -1.4144 H   0  0  0  0  0  0  0  0  0  0  0  0
   -3.1180    0.9415   -1.8227 H   0  0  0  0  0  0  0  0  0  0  0  0
   -1.1267    2.1464   -0.9931 H   0  0  0  0  0  0  0  0  0  0  0  0
   -1.5432    2.4417    0.6912 H   0  0  0  0  0  0  0  0  0  0  0  0
    0.9307    2.2384    0.2414 H   0  0  0  0  0  0  0  0  0  0  0  0
    0.3279    1.1195    1.4740 H   0  0  0  0  0  0  0  0  0  0  0  0
   -0.0873   -1.7709   -0.8034 H   0  0  0  0  0  0  0  0  0  0  0  0
    0.5449   -1.6102    0.8186 H   0  0  0  0  0  0  0  0  0  0  0  0
    4.0823   -0.4983   -1.2736 H   0  0  0  0  0  0  0  0  0  0  0  0
    2.6087   -0.3404   -2.3415 H   0  0  0  0  0  0  0  0  0  0  0  0
    3.8815   -0.3931    1.0963 H   0  0  0  0  0  0  0  0  0  0  0  0
    2.9038    1.0338    1.4422 H   0  0  0  0  0  0  0  0  0  0  0  0
    2.2705   -0.5658    1.8036 H   0  0  0  0  0  0  0  0  0  0  0  0
  1  2  1  0  0  0  0
  2  3  1  0  0  0  0
  2  4  1  0  0  0  0
  4  5  1  0  0  0  0
  5  6  1  0  0  0  0
  6  7  1  0  0  0  0
  6  8  1  0  0  0  0
  2  9  1  0  0  0  0
  8  9  1  0  0  0  0
  9 10  2  0  0  0  0
  6 11  1  0  0  0  0
 11 12  2  0  0  0  0
 11 13  1  0  0  0  0
  1 14  1  0  0  0  0
  1 15  1  0  0  0  0
  1 16  1  0  0  0  0
  4 17  1  0  0  0  0
  4 18  1  0  0  0  0
  5 19  1  0  0  0  0
  5 20  1  0  0  0  0
  8 21  1  0  0  0  0
  8 22  1  0  0  0  0
 12 23  1  0  0  0  0
 12 24  1  0  0  0  0
 13 25  1  0  0  0  0
 13 26  1  0  0  0  0
 13 27  1  0  0  0  0
M  END
