15
 xtb: 6.7.1 (edcfbbe)
C           -2.19099727674247        0.33055323103259        0.31090430044030
C           -1.00739601012290        0.13582219691083       -0.64511620067351
C            0.00459142914108       -0.81687743445535       -0.08500735655288
C            1.27358269764049       -0.56027205759659        0.25276094384404
C            2.00403401920546        0.73988773370818        0.13874704502792
H           -1.85759809686466        0.76935132085011        1.25710890331413
H           -2.67381311370580       -0.62656838195460        0.53593526633387
H           -2.94397772669262        0.99386036716133       -0.12675624803660
H           -1.38728018229606       -0.26780325181466       -1.59352883543377
H           -0.55460643637873        1.10490923126644       -0.87423224937030
H           -0.36514754342368       -1.83014223898129        0.08024486082902
H            1.85995917174321       -1.38355108060919        0.66156514161855
H            2.87487275407375        0.63669239690206       -0.52054028562771
H            2.39483042731931        1.04607664883623        1.11682961686597
H            1.38038969212603        1.54932433017429       -0.24630760020593
