 xtb: 6.7.1 (edcfbbe)
          04062518003D

 24 24  0     0  0            999 V2000
   -2.5496   -0.9002    0.3283 C   0  0  0  0  0  0  0  0  0  0  0  0
   -1.1205   -0.4320    0.6456 C   0  0  0  0  0  0  0  0  0  0  0  0
   -0.9861   -0.3649    1.7378 H   0  0  0  0  0  0  0  0  0  0  0  0
   -0.8308    0.9383    0.0135 C   0  0  0  0  0  0  0  0  0  0  0  0
   -1.0648    0.8896   -1.0556 H   0  0  0  0  0  0  0  0  0  0  0  0
    0.6507    1.2926    0.1962 C   0  0  0  0  0  0  0  0  0  0  0  0
    0.8512    1.4457    1.2723 H   0  0  0  0  0  0  0  0  0  0  0  0
    1.5627    0.1596   -0.2899 C   0  0  0  0  0  0  0  0  0  0  0  0
    1.4858    0.0747   -1.3829 H   0  0  0  0  0  0  0  0  0  0  0  0
    1.1230   -1.1779    0.3215 C   0  0  0  0  0  0  0  0  0  0  0  0
    1.3380   -1.1427    1.4100 H   0  0  0  0  0  0  0  0  0  0  0  0
   -0.2518   -1.4205    0.1225 O   0  0  0  0  0  0  0  0  0  0  0  0
    1.8165   -2.1910   -0.3000 O   0  0  0  0  0  0  0  0  0  0  0  0
    2.8903    0.3830    0.1039 O   0  0  0  0  0  0  0  0  0  0  0  0
    0.9954    2.4566   -0.5166 O   0  0  0  0  0  0  0  0  0  0  0  0
   -1.6496    1.9540    0.5342 O   0  0  0  0  0  0  0  0  0  0  0  0
   -2.7359   -1.1228   -1.0435 O   0  0  0  0  0  0  0  0  0  0  0  0
   -3.2554   -0.1177    0.6117 H   0  0  0  0  0  0  0  0  0  0  0  0
   -2.7588   -1.8120    0.9007 H   0  0  0  0  0  0  0  0  0  0  0  0
    1.5116   -3.0518    0.0294 H   0  0  0  0  0  0  0  0  0  0  0  0
    3.1855    1.2205   -0.2857 H   0  0  0  0  0  0  0  0  0  0  0  0
    0.2770    3.1015   -0.4245 H   0  0  0  0  0  0  0  0  0  0  0  0
   -1.5367    2.0112    1.4952 H   0  0  0  0  0  0  0  0  0  0  0  0
   -2.0760   -1.7684   -1.3369 H   0  0  0  0  0  0  0  0  0  0  0  0
  1  2  1  0  0  0  0
  2  3  1  0  0  0  0
  2  4  1  0  0  0  0
  4  5  1  0  0  0  0
  4  6  1  0  0  0  0
  6  7  1  0  0  0  0
  6  8  1  0  0  0  0
  8  9  1  0  0  0  0
  8 10  1  0  0  0  0
 10 11  1  0  0  0  0
  2 12  1  0  0  0  0
 10 12  1  0  0  0  0
 10 13  1  0  0  0  0
  8 14  1  0  0  0  0
  6 15  1  0  0  0  0
  4 16  1  0  0  0  0
  1 17  1  0  0  0  0
  1 18  1  0  0  0  0
  1 19  1  0  0  0  0
 13 20  1  0  0  0  0
 14 21  1  0  0  0  0
 15 22  1  0  0  0  0
 16 23  1  0  0  0  0
 17 24  1  0  0  0  0
M  END
