19
 xtb: 6.7.1 (edcfbbe)
C           -3.10061447910869        0.38003290272973       -0.00080410948200
C           -1.63482213895649        0.04259044708152        0.00050470896389
C           -1.18992299690417       -1.28013711969562        0.00040434503359
C            0.17044155926270       -1.57829576563282       -0.00002469815100
C            1.10453671074334       -0.54872488038800       -0.00028084921235
C            0.69884644744115        0.79487409421103        0.00006385531593
C           -0.67126622558221        1.05710150407734        0.00048618826593
C            1.71333593069627        1.90242860273672        0.00023074552586
O            2.44022958733605       -0.90684854059064       -0.00058509780326
H           -3.71224521917697       -0.52572879354458        0.01590390900907
H           -3.36957195775935        0.98737880551800        0.87042308777887
H           -3.37484276090784        0.95741006879546       -0.89073274725444
H           -1.91181681814290       -2.09209765236662        0.00073380078095
H            0.51520556612429       -2.60782173422456        0.00006113591212
H           -0.99611245367460        2.09555522379445        0.00083765103245
H            2.36177889991250        1.85706230608408       -0.88424618681339
H            1.21791518799361        2.87544540117250        0.00177967538549
H            2.36361479661658        1.85517754384544        0.88325570492487
H            2.98606767484630       -0.10896430431748       -0.00065869780383
