 xtb: 6.7.1 (edcfbbe)
          04062518003D

 24 24  0     0  0            999 V2000
   -2.3951   -0.8596    0.4563 C   0  0  0  0  0  0  0  0  0  0  0  0
   -0.9324   -0.4198    0.5866 C   0  0  0  0  0  0  0  0  0  0  0  0
   -0.6181   -0.5519    1.6329 H   0  0  0  0  0  0  0  0  0  0  0  0
   -0.7348    1.0574    0.1899 C   0  0  0  0  0  0  0  0  0  0  0  0
   -1.4849    1.3366   -0.5588 H   0  0  0  0  0  0  0  0  0  0  0  0
    0.6689    1.2565   -0.4363 C   0  0  0  0  0  0  0  0  0  0  0  0
    0.9584    2.2998   -0.2676 H   0  0  0  0  0  0  0  0  0  0  0  0
    1.6756    0.3206    0.2612 C   0  0  0  0  0  0  0  0  0  0  0  0
    2.6531    0.4202   -0.2200 H   0  0  0  0  0  0  0  0  0  0  0  0
    1.2375   -1.1475    0.0535 C   0  0  0  0  0  0  0  0  0  0  0  0
    1.4431   -1.6940    0.9969 H   0  0  0  0  0  0  0  0  0  0  0  0
   -0.1406   -1.2605   -0.2397 O   0  0  0  0  0  0  0  0  0  0  0  0
    1.9454   -1.6713   -1.0094 O   0  0  0  0  0  0  0  0  0  0  0  0
    1.7273    0.5960    1.6436 O   0  0  0  0  0  0  0  0  0  0  0  0
    0.6822    1.0838   -1.8272 O   0  0  0  0  0  0  0  0  0  0  0  0
   -0.9397    1.9104    1.2851 O   0  0  0  0  0  0  0  0  0  0  0  0
   -2.8859   -0.7376   -0.8525 O   0  0  0  0  0  0  0  0  0  0  0  0
   -3.0075   -0.2049    1.0788 H   0  0  0  0  0  0  0  0  0  0  0  0
   -2.4887   -1.8934    0.8109 H   0  0  0  0  0  0  0  0  0  0  0  0
    1.6612   -2.5828   -1.1824 H   0  0  0  0  0  0  0  0  0  0  0  0
    2.5162    1.1140    1.8527 H   0  0  0  0  0  0  0  0  0  0  0  0
    0.5591    0.1457   -2.0355 H   0  0  0  0  0  0  0  0  0  0  0  0
   -0.2669    1.7151    1.9575 H   0  0  0  0  0  0  0  0  0  0  0  0
   -2.3702   -1.3192   -1.4292 H   0  0  0  0  0  0  0  0  0  0  0  0
  1  2  1  0  0  0  0
  2  3  1  0  0  0  0
  2  4  1  0  0  0  0
  4  5  1  0  0  0  0
  4  6  1  0  0  0  0
  6  7  1  0  0  0  0
  6  8  1  0  0  0  0
  8  9  1  0  0  0  0
  8 10  1  0  0  0  0
 10 11  1  0  0  0  0
  2 12  1  0  0  0  0
 10 12  1  0  0  0  0
 10 13  1  0  0  0  0
  8 14  1  0  0  0  0
  6 15  1  0  0  0  0
  4 16  1  0  0  0  0
  1 17  1  0  0  0  0
  1 18  1  0  0  0  0
  1 19  1  0  0  0  0
 13 20  1  0  0  0  0
 14 21  1  0  0  0  0
 15 22  1  0  0  0  0
 16 23  1  0  0  0  0
 17 24  1  0  0  0  0
M  END
