 xtb: 6.7.1 (edcfbbe)
          04032521453D

 10  9  0     0  0            999 V2000
   -1.3632   -0.8759    0.2336 C   0  0  0  0  0  0  0  0  0  0  0  0
    0.0002    0.1577   -0.4348 S   0  0  0  0  0  0  0  0  0  0  0  0
    0.0016    1.4033    0.3887 O   0  0  0  0  0  0  0  0  0  0  0  0
    1.3612   -0.8789    0.2336 C   0  0  0  0  0  0  0  0  0  0  0  0
   -1.2607   -0.9645    1.3088 H   0  0  0  0  0  0  0  0  0  0  0  0
   -1.3152   -1.8421   -0.2515 H   0  0  0  0  0  0  0  0  0  0  0  0
   -2.2965   -0.3796   -0.0092 H   0  0  0  0  0  0  0  0  0  0  0  0
    1.2601   -0.9645    1.3092 H   0  0  0  0  0  0  0  0  0  0  0  0
    2.2958   -0.3864   -0.0120 H   0  0  0  0  0  0  0  0  0  0  0  0
    1.3090   -1.8462   -0.2491 H   0  0  0  0  0  0  0  0  0  0  0  0
  1  2  1  0  0  0  0
  2  3  2  0  0  0  0
  2  4  1  0  0  0  0
  1  5  1  0  0  0  0
  1  6  1  0  0  0  0
  1  7  1  0  0  0  0
  4  8  1  0  0  0  0
  4  9  1  0  0  0  0
  4 10  1  0  0  0  0
M  END
