 xtb: 6.7.1 (edcfbbe)
          04042513323D

 12 11  0     0  0            999 V2000
   -2.3754    0.8251   -0.1986 C   0  0  0  0  0  0  0  0  0  0  0  0
   -1.1262    0.5810    0.4585 O   0  0  0  0  0  0  0  0  0  0  0  0
   -0.4136   -0.4537    0.0594 C   0  0  0  0  0  0  0  0  0  0  0  0
   -0.7419   -1.2255   -0.8098 O   0  0  0  0  0  0  0  0  0  0  0  0
    0.8974   -0.5415    0.8332 C   0  0  0  0  0  0  0  0  0  0  0  0
    1.8660    0.2743    0.1543 C   0  0  0  0  0  0  0  0  0  0  0  0
    2.6252    0.9295   -0.3966 N   0  0  0  0  0  0  0  0  0  0  0  0
   -2.9853   -0.0784   -0.1851 H   0  0  0  0  0  0  0  0  0  0  0  0
   -2.1972    1.1219   -1.2322 H   0  0  0  0  0  0  0  0  0  0  0  0
   -2.8466    1.6271    0.3605 H   0  0  0  0  0  0  0  0  0  0  0  0
    1.2466   -1.5754    0.8469 H   0  0  0  0  0  0  0  0  0  0  0  0
    0.7556   -0.1575    1.8448 H   0  0  0  0  0  0  0  0  0  0  0  0
  1  2  1  0  0  0  0
  2  3  1  0  0  0  0
  3  4  2  0  0  0  0
  3  5  1  0  0  0  0
  5  6  1  0  0  0  0
  6  7  3  0  0  0  0
  1  8  1  0  0  0  0
  1  9  1  0  0  0  0
  1 10  1  0  0  0  0
  5 11  1  0  0  0  0
  5 12  1  0  0  0  0
M  END
