20
 xtb: 6.7.1 (edcfbbe)
C           -2.99137339671897        1.24027718514567       -0.00004969436601
C           -1.75552991486470        0.38382397325632        0.00026755783896
C           -1.83335157124861       -1.00650741461490       -0.00035738886816
C           -0.67679488205693       -1.79043442140083       -0.00058087405901
C            0.56901590730582       -1.18874242210936       -0.00017130825357
C            0.66537507713714        0.21482818600055        0.00040824712830
C           -0.48850040905741        0.98848105613733        0.00068010290464
O            1.94907352929315        0.69836775664360        0.00081453766046
C            2.11462039666553        2.12513047376424       -0.00167273711499
O            1.70353479088527       -1.97423241684602       -0.00029698663184
H           -3.02602372256779        1.88691652115584       -0.88389563294021
H           -3.89426339788978        0.62458650709158        0.00548615670506
H           -3.02065694077978        1.89540105311234        0.87765965498493
H           -2.80424920028335       -1.49256191811286       -0.00069826729403
H           -0.73754500301061       -2.87434522463931       -0.00106850456414
H           -0.41853023294601        2.07076515176920        0.00127152004491
H            3.19129648879033        2.29675155452624       -0.00287708389886
H            1.67058746940113        2.57019138480802        0.89550761758682
H            1.66902188466414        2.56711210418510       -0.89959375984635
H            2.47659502796039       -1.38997149467355       -0.00024159453054
