 xtb: 6.7.1 (edcfbbe)
          04062518003D

 24 24  0     0  0            999 V2000
   -2.5348   -0.9559    0.3234 C   0  0  0  0  0  0  0  0  0  0  0  0
   -1.1035   -0.4787    0.6140 C   0  0  0  0  0  0  0  0  0  0  0  0
   -0.9590   -0.4212    1.7031 H   0  0  0  0  0  0  0  0  0  0  0  0
   -0.8313    0.9171    0.0140 C   0  0  0  0  0  0  0  0  0  0  0  0
   -1.0636    0.8845   -1.0591 H   0  0  0  0  0  0  0  0  0  0  0  0
    0.6531    1.2953    0.1879 C   0  0  0  0  0  0  0  0  0  0  0  0
    0.8509    1.4622    1.2520 H   0  0  0  0  0  0  0  0  0  0  0  0
    1.5535    0.1574   -0.3157 C   0  0  0  0  0  0  0  0  0  0  0  0
    1.4339    0.0645   -1.4093 H   0  0  0  0  0  0  0  0  0  0  0  0
    1.1265   -1.1746    0.3360 C   0  0  0  0  0  0  0  0  0  0  0  0
    1.2956   -1.1027    1.4237 H   0  0  0  0  0  0  0  0  0  0  0  0
   -0.2237   -1.4438    0.0624 O   0  0  0  0  0  0  0  0  0  0  0  0
    1.8944   -2.2320   -0.1158 O   0  0  0  0  0  0  0  0  0  0  0  0
    2.8886    0.4535    0.0008 O   0  0  0  0  0  0  0  0  0  0  0  0
    0.9518    2.5198   -0.4237 O   0  0  0  0  0  0  0  0  0  0  0  0
   -1.6007    1.8970    0.6669 O   0  0  0  0  0  0  0  0  0  0  0  0
   -2.8492   -0.9248   -1.0443 O   0  0  0  0  0  0  0  0  0  0  0  0
   -3.2397   -0.2900    0.8227 H   0  0  0  0  0  0  0  0  0  0  0  0
   -2.6482   -1.9663    0.7308 H   0  0  0  0  0  0  0  0  0  0  0  0
    1.5580   -2.5335   -0.9749 H   0  0  0  0  0  0  0  0  0  0  0  0
    3.4252   -0.3458   -0.1233 H   0  0  0  0  0  0  0  0  0  0  0  0
    0.8358    2.4495   -1.3832 H   0  0  0  0  0  0  0  0  0  0  0  0
   -2.4705    1.9653    0.2500 H   0  0  0  0  0  0  0  0  0  0  0  0
   -2.3197   -1.5941   -1.4996 H   0  0  0  0  0  0  0  0  0  0  0  0
  1  2  1  0  0  0  0
  2  3  1  0  0  0  0
  2  4  1  0  0  0  0
  4  5  1  0  0  0  0
  4  6  1  0  0  0  0
  6  7  1  0  0  0  0
  6  8  1  0  0  0  0
  8  9  1  0  0  0  0
  8 10  1  0  0  0  0
 10 11  1  0  0  0  0
  2 12  1  0  0  0  0
 10 12  1  0  0  0  0
 10 13  1  0  0  0  0
  8 14  1  0  0  0  0
  6 15  1  0  0  0  0
  4 16  1  0  0  0  0
  1 17  1  0  0  0  0
  1 18  1  0  0  0  0
  1 19  1  0  0  0  0
 13 20  1  0  0  0  0
 14 21  1  0  0  0  0
 15 22  1  0  0  0  0
 16 23  1  0  0  0  0
 17 24  1  0  0  0  0
M  END
