19
 xtb: 6.7.1 (edcfbbe)
C           -2.66690643070032        0.58874334557438        0.75663562012241
C           -1.85124988600613        0.59462580532112       -0.54272721835849
C           -0.38111612006652        0.38849307543100       -0.29456779179419
C            0.50208787827869        1.46751482767657       -0.22741535203667
C            1.85898323464598        1.29341455866623        0.03881541645855
C            2.35663931791421        0.00860162974263        0.23993377982566
C            1.50062310548846       -1.08720384929850        0.17996563330417
C            0.14418644066183       -0.89469142007918       -0.08023255196580
O           -0.73247642765771       -1.95587886143233       -0.14170577294496
H           -3.73189272008530        0.72972862022392        0.54616624013475
H           -2.34024482076699        1.39669406881393        1.41946745146927
H           -2.54910625606658       -0.35774138259352        1.29339418261321
H           -1.98924001402463        1.55367757173145       -1.05242409922286
H           -2.22976707655721       -0.18505731849268       -1.21238590158783
H            0.10744230354931        2.46739546370976       -0.39020988917014
H            2.52069425368484        2.15231758161645        0.08277365879782
H            3.41148731431802       -0.14758336713429        0.44308214858461
H            1.87730798254078       -2.09548831752234        0.33309130335770
H           -0.24520402980035       -2.77496873896473        0.02400900792264
