24
 xtb: 6.7.1 (edcfbbe)
C           -2.68683479550232       -1.71093112682535        0.83145065326513
C           -2.33046872822155       -1.00797443893300       -0.48514146970900
C           -1.30442072160371        0.07914417006200       -0.29465758997304
C           -1.71004174528902        1.39560146286013       -0.19888729768774
C           -0.79464843837703        2.44273673381602        0.03222885065039
C            0.54511619658964        2.17442316563130        0.16676024392991
C            1.01774202974702        0.84305525077992        0.07177793595251
C            0.08693570333952       -0.22414626454357       -0.16062315049295
C            0.59639196065691       -1.54511859403397       -0.25510490144858
C            1.94224880152462       -1.80029195114847       -0.12644584480576
C            2.85273153679115       -0.74799463511228        0.10457489703562
C            2.39729668499165        0.54476290561251        0.19969794212900
H           -3.10689349919005       -0.99576865038033        1.54611882063472
H           -1.80572637512717       -2.16882622998519        1.29138637278365
H           -3.42875958130576       -2.49734460774314        0.66007449410685
H           -3.23631727355431       -0.56032826076302       -0.90618894091432
H           -1.97681400133474       -1.74717734482875       -1.21208856626681
H           -2.76611440480124        1.63024972465559       -0.30339053152492
H           -1.15771488060225        3.46366307429878        0.10039433099363
H            1.25952030671017        2.97312588900991        0.34493485354011
H           -0.08399492350482       -2.37044261987135       -0.43241539511413
H            2.30805497373151       -2.81937163596930       -0.20456542010719
H            3.91203398595061       -0.96289012283563        0.20444401840439
H            3.09037976367183        1.36325739031833        0.37408922282155
