 xtb: 6.7.1 (edcfbbe)
          04062518003D

 24 24  0     0  0            999 V2000
   -2.3609   -1.0104    0.3822 C   0  0  0  0  0  0  0  0  0  0  0  0
   -1.0845   -0.2549    0.8061 C   0  0  0  0  0  0  0  0  0  0  0  0
   -1.3004    0.2078    1.7781 H   0  0  0  0  0  0  0  0  0  0  0  0
   -0.6747    0.8516   -0.1831 C   0  0  0  0  0  0  0  0  0  0  0  0
   -0.6679    0.4602   -1.2066 H   0  0  0  0  0  0  0  0  0  0  0  0
    0.7540    1.2951    0.1883 C   0  0  0  0  0  0  0  0  0  0  0  0
    0.7842    1.5163    1.2636 H   0  0  0  0  0  0  0  0  0  0  0  0
    1.7267    0.1345   -0.1058 C   0  0  0  0  0  0  0  0  0  0  0  0
    2.0480    0.1810   -1.1517 H   0  0  0  0  0  0  0  0  0  0  0  0
    0.9953   -1.2194    0.0773 C   0  0  0  0  0  0  0  0  0  0  0  0
    1.7103   -1.9576    0.4770 H   0  0  0  0  0  0  0  0  0  0  0  0
   -0.0067   -1.1612    1.0561 O   0  0  0  0  0  0  0  0  0  0  0  0
    0.5226   -1.6144   -1.1715 O   0  0  0  0  0  0  0  0  0  0  0  0
    2.9059    0.2079    0.6472 O   0  0  0  0  0  0  0  0  0  0  0  0
    1.1232    2.4985   -0.4275 O   0  0  0  0  0  0  0  0  0  0  0  0
   -1.5966    1.9078   -0.1839 O   0  0  0  0  0  0  0  0  0  0  0  0
   -2.2565   -1.6908   -0.8447 O   0  0  0  0  0  0  0  0  0  0  0  0
   -3.1867   -0.2926    0.3688 H   0  0  0  0  0  0  0  0  0  0  0  0
   -2.5596   -1.7782    1.1333 H   0  0  0  0  0  0  0  0  0  0  0  0
   -0.1753   -2.2864   -1.0637 H   0  0  0  0  0  0  0  0  0  0  0  0
    2.6992    0.1948    1.5932 H   0  0  0  0  0  0  0  0  0  0  0  0
    1.1215    2.3965   -1.3898 H   0  0  0  0  0  0  0  0  0  0  0  0
   -1.4266    2.4998    0.5627 H   0  0  0  0  0  0  0  0  0  0  0  0
   -2.3528   -1.0632   -1.5737 H   0  0  0  0  0  0  0  0  0  0  0  0
  1  2  1  0  0  0  0
  2  3  1  0  0  0  0
  2  4  1  0  0  0  0
  4  5  1  0  0  0  0
  4  6  1  0  0  0  0
  6  7  1  0  0  0  0
  6  8  1  0  0  0  0
  8  9  1  0  0  0  0
  8 10  1  0  0  0  0
 10 11  1  0  0  0  0
  2 12  1  0  0  0  0
 10 12  1  0  0  0  0
 10 13  1  0  0  0  0
  8 14  1  0  0  0  0
  6 15  1  0  0  0  0
  4 16  1  0  0  0  0
  1 17  1  0  0  0  0
  1 18  1  0  0  0  0
  1 19  1  0  0  0  0
 13 20  1  0  0  0  0
 14 21  1  0  0  0  0
 15 22  1  0  0  0  0
 16 23  1  0  0  0  0
 17 24  1  0  0  0  0
M  END
