 xtb: 6.7.1 (edcfbbe)
          04062518003D

 24 24  0     0  0            999 V2000
   -2.5300   -0.9356    0.3414 C   0  0  0  0  0  0  0  0  0  0  0  0
   -1.0994   -0.4718    0.6253 C   0  0  0  0  0  0  0  0  0  0  0  0
   -0.9654   -0.3814    1.7153 H   0  0  0  0  0  0  0  0  0  0  0  0
   -0.8322    0.8991   -0.0086 C   0  0  0  0  0  0  0  0  0  0  0  0
   -1.0682    0.8258   -1.0818 H   0  0  0  0  0  0  0  0  0  0  0  0
    0.6436    1.2765    0.1689 C   0  0  0  0  0  0  0  0  0  0  0  0
    0.8315    1.4703    1.2321 H   0  0  0  0  0  0  0  0  0  0  0  0
    1.5761    0.1477   -0.2910 C   0  0  0  0  0  0  0  0  0  0  0  0
    1.5129    0.0268   -1.3843 H   0  0  0  0  0  0  0  0  0  0  0  0
    1.1456   -1.1865    0.3356 C   0  0  0  0  0  0  0  0  0  0  0  0
    1.3409   -1.1309    1.4283 H   0  0  0  0  0  0  0  0  0  0  0  0
   -0.2196   -1.4512    0.1152 O   0  0  0  0  0  0  0  0  0  0  0  0
    1.8675   -2.2019   -0.2534 O   0  0  0  0  0  0  0  0  0  0  0  0
    2.8992    0.3998    0.1037 O   0  0  0  0  0  0  0  0  0  0  0  0
    0.9473    2.4867   -0.4852 O   0  0  0  0  0  0  0  0  0  0  0  0
   -1.6696    1.8368    0.6207 O   0  0  0  0  0  0  0  0  0  0  0  0
   -2.7619   -0.9120   -1.0469 O   0  0  0  0  0  0  0  0  0  0  0  0
   -3.2081   -0.2501    0.8632 H   0  0  0  0  0  0  0  0  0  0  0  0
   -2.6399   -1.9506    0.7388 H   0  0  0  0  0  0  0  0  0  0  0  0
    1.4857   -3.0576   -0.0000 H   0  0  0  0  0  0  0  0  0  0  0  0
    3.1338    1.3040   -0.1617 H   0  0  0  0  0  0  0  0  0  0  0  0
    0.7998    2.3889   -1.4384 H   0  0  0  0  0  0  0  0  0  0  0  0
   -1.3841    2.7277    0.3638 H   0  0  0  0  0  0  0  0  0  0  0  0
   -3.6467   -1.2611   -1.2235 H   0  0  0  0  0  0  0  0  0  0  0  0
  1  2  1  0  0  0  0
  2  3  1  0  0  0  0
  2  4  1  0  0  0  0
  4  5  1  0  0  0  0
  4  6  1  0  0  0  0
  6  7  1  0  0  0  0
  6  8  1  0  0  0  0
  8  9  1  0  0  0  0
  8 10  1  0  0  0  0
 10 11  1  0  0  0  0
  2 12  1  0  0  0  0
 10 12  1  0  0  0  0
 10 13  1  0  0  0  0
  8 14  1  0  0  0  0
  6 15  1  0  0  0  0
  4 16  1  0  0  0  0
  1 17  1  0  0  0  0
  1 18  1  0  0  0  0
  1 19  1  0  0  0  0
 13 20  1  0  0  0  0
 14 21  1  0  0  0  0
 15 22  1  0  0  0  0
 16 23  1  0  0  0  0
 17 24  1  0  0  0  0
M  END
