 xtb: 6.7.1 (edcfbbe)
          04052516073D

 27 27  0     0  0            999 V2000
   -2.4963    0.4620   -1.3984 C   0  0  0  0  0  0  0  0  0  0  0  0
   -2.0735    0.4197    0.0772 C   0  0  0  0  0  0  0  0  0  0  0  0
   -2.9825    0.4291    0.6871 H   0  0  0  0  0  0  0  0  0  0  0  0
   -1.1649    1.6072    0.4500 C   0  0  0  0  0  0  0  0  0  0  0  0
    0.2619    1.1799    0.7902 C   0  0  0  0  0  0  0  0  0  0  0  0
    0.7971    0.2515   -0.3016 C   0  0  0  0  0  0  0  0  0  0  0  0
    0.6041    0.7376   -1.2658 H   0  0  0  0  0  0  0  0  0  0  0  0
    0.0009   -1.0615   -0.2243 C   0  0  0  0  0  0  0  0  0  0  0  0
   -1.3935   -0.9058    0.3149 C   0  0  0  0  0  0  0  0  0  0  0  0
   -1.9649   -1.8253    0.8734 O   0  0  0  0  0  0  0  0  0  0  0  0
    2.2910   -0.0169   -0.2408 C   0  0  0  0  0  0  0  0  0  0  0  0
    2.8340   -1.0449   -0.8769 C   0  0  0  0  0  0  0  0  0  0  0  0
    3.1491    0.9477    0.5207 C   0  0  0  0  0  0  0  0  0  0  0  0
   -1.6282    0.4655   -2.0511 H   0  0  0  0  0  0  0  0  0  0  0  0
   -3.1109   -0.4033   -1.6389 H   0  0  0  0  0  0  0  0  0  0  0  0
   -3.0790    1.3605   -1.5834 H   0  0  0  0  0  0  0  0  0  0  0  0
   -1.1334    2.3068   -0.3867 H   0  0  0  0  0  0  0  0  0  0  0  0
   -1.5900    2.1347    1.3044 H   0  0  0  0  0  0  0  0  0  0  0  0
    0.8725    2.0762    0.8804 H   0  0  0  0  0  0  0  0  0  0  0  0
    0.2765    0.6544    1.7484 H   0  0  0  0  0  0  0  0  0  0  0  0
   -0.1004   -1.5195   -1.2111 H   0  0  0  0  0  0  0  0  0  0  0  0
    0.5194   -1.7867    0.4076 H   0  0  0  0  0  0  0  0  0  0  0  0
    3.8960   -1.2209   -0.8537 H   0  0  0  0  0  0  0  0  0  0  0  0
    2.2574   -1.7514   -1.4473 H   0  0  0  0  0  0  0  0  0  0  0  0
    3.0339    1.9560    0.1274 H   0  0  0  0  0  0  0  0  0  0  0  0
    2.8744    0.9586    1.5735 H   0  0  0  0  0  0  0  0  0  0  0  0
    4.1948    0.6639    0.4398 H   0  0  0  0  0  0  0  0  0  0  0  0
  1  2  1  0  0  0  0
  2  3  1  0  0  0  0
  2  4  1  0  0  0  0
  4  5  1  0  0  0  0
  5  6  1  0  0  0  0
  6  7  1  0  0  0  0
  6  8  1  0  0  0  0
  2  9  1  0  0  0  0
  8  9  1  0  0  0  0
  9 10  2  0  0  0  0
  6 11  1  0  0  0  0
 11 12  2  0  0  0  0
 11 13  1  0  0  0  0
  1 14  1  0  0  0  0
  1 15  1  0  0  0  0
  1 16  1  0  0  0  0
  4 17  1  0  0  0  0
  4 18  1  0  0  0  0
  5 19  1  0  0  0  0
  5 20  1  0  0  0  0
  8 21  1  0  0  0  0
  8 22  1  0  0  0  0
 12 23  1  0  0  0  0
 12 24  1  0  0  0  0
 13 25  1  0  0  0  0
 13 26  1  0  0  0  0
 13 27  1  0  0  0  0
M  END
