14
 xtb: 6.7.1 (edcfbbe)
C            2.20271941651053        0.49330834658187        0.12218945180509
C            1.23031564314261       -0.58786346406603       -0.33315370303757
C           -0.10927294665432       -0.57917082528629        0.37633503078620
H            0.02738358136187       -0.54898108833701        1.46075439344026
C           -1.01883153687866       -1.71561815818730       -0.02947305374251
Cl          -0.99490960620452        1.03161269988642        0.01130205743480
H            2.35613256045985        0.44945504267825        1.20582004131935
H            1.83509814764343        1.49235149994672       -0.12884493234772
H            3.17520314061936        0.36209545197056       -0.36127403098012
H            1.66268398299702       -1.57700728257320       -0.12875815172260
H            1.06596264432117       -0.53478811322800       -1.41606091783102
H           -0.53390205695438       -2.66067842446240        0.24065675107281
H           -1.98067356247832       -1.66614378897587        0.48642841085782
H           -1.19220915751119       -1.71412916903328       -1.10967753508713
