 xtb: 6.7.1 (edcfbbe)
          04032521583D

 11 10  0     0  0            999 V2000
   -2.7623    0.0972   -0.6545 C   0  0  0  0  0  0  0  0  0  0  0  0
   -1.3340   -0.0835   -0.7379 O   0  0  0  0  0  0  0  0  0  0  0  0
   -0.6304    0.1677    0.3224 C   0  0  0  0  0  0  0  0  0  0  0  0
   -1.0060    0.5406    1.3998 O   0  0  0  0  0  0  0  0  0  0  0  0
    0.8769   -0.0904    0.0163 C   0  0  0  0  0  0  0  0  0  0  0  0
    1.3170    0.6900   -0.9801 F   0  0  0  0  0  0  0  0  0  0  0  0
    1.6444    0.1497    1.0801 F   0  0  0  0  0  0  0  0  0  0  0  0
    1.0933   -1.3591   -0.3564 F   0  0  0  0  0  0  0  0  0  0  0  0
   -3.1666   -0.5346    0.1353 H   0  0  0  0  0  0  0  0  0  0  0  0
   -3.1420   -0.1934   -1.6285 H   0  0  0  0  0  0  0  0  0  0  0  0
   -2.9868    1.1403   -0.4358 H   0  0  0  0  0  0  0  0  0  0  0  0
  1  2  1  0  0  0  0
  2  3  4  0  0  0  0
  3  4  2  0  0  0  0
  3  5  1  0  0  0  0
  5  6  1  0  0  0  0
  5  7  1  0  0  0  0
  5  8  1  0  0  0  0
  1  9  1  0  0  0  0
  1 10  1  0  0  0  0
  1 11  1  0  0  0  0
M  END
