 xtb: 6.7.1 (edcfbbe)
          04062518003D

 24 24  0     0  0            999 V2000
   -2.4824   -0.4618   -0.2022 C   0  0  0  0  0  0  0  0  0  0  0  0
   -1.0451   -0.1833    0.2433 C   0  0  0  0  0  0  0  0  0  0  0  0
   -0.9605   -0.3970    1.3189 H   0  0  0  0  0  0  0  0  0  0  0  0
   -0.6290    1.2860   -0.0094 C   0  0  0  0  0  0  0  0  0  0  0  0
   -1.2418    1.7138   -0.8112 H   0  0  0  0  0  0  0  0  0  0  0  0
    0.8442    1.3112   -0.4703 C   0  0  0  0  0  0  0  0  0  0  0  0
    1.2471    2.3154   -0.3049 H   0  0  0  0  0  0  0  0  0  0  0  0
    1.6565    0.2982    0.3626 C   0  0  0  0  0  0  0  0  0  0  0  0
    2.7007    0.3241    0.0275 H   0  0  0  0  0  0  0  0  0  0  0  0
    1.1058   -1.1314    0.0974 C   0  0  0  0  0  0  0  0  0  0  0  0
    1.0541   -1.6765    1.0547 H   0  0  0  0  0  0  0  0  0  0  0  0
   -0.1904   -1.0706   -0.4713 O   0  0  0  0  0  0  0  0  0  0  0  0
    1.9163   -1.8813   -0.7277 O   0  0  0  0  0  0  0  0  0  0  0  0
    1.5412    0.6626    1.7166 O   0  0  0  0  0  0  0  0  0  0  0  0
    0.9736    1.0506   -1.8442 O   0  0  0  0  0  0  0  0  0  0  0  0
   -0.8561    2.0951    1.1102 O   0  0  0  0  0  0  0  0  0  0  0  0
   -2.9202   -1.7417    0.1735 O   0  0  0  0  0  0  0  0  0  0  0  0
   -2.5528   -0.3321   -1.2893 H   0  0  0  0  0  0  0  0  0  0  0  0
   -3.1449    0.2517    0.2903 H   0  0  0  0  0  0  0  0  0  0  0  0
    1.9582   -1.4829   -1.6118 H   0  0  0  0  0  0  0  0  0  0  0  0
    2.2545    0.2664    2.2361 H   0  0  0  0  0  0  0  0  0  0  0  0
    0.4192    0.2840   -2.0625 H   0  0  0  0  0  0  0  0  0  0  0  0
   -0.2215    1.8512    1.8044 H   0  0  0  0  0  0  0  0  0  0  0  0
   -2.3311   -2.3976   -0.2273 H   0  0  0  0  0  0  0  0  0  0  0  0
  1  2  1  0  0  0  0
  2  3  1  0  0  0  0
  2  4  1  0  0  0  0
  4  5  1  0  0  0  0
  4  6  1  0  0  0  0
  6  7  1  0  0  0  0
  6  8  1  0  0  0  0
  8  9  1  0  0  0  0
  8 10  1  0  0  0  0
 10 11  1  0  0  0  0
  2 12  1  0  0  0  0
 10 12  1  0  0  0  0
 10 13  1  0  0  0  0
  8 14  1  0  0  0  0
  6 15  1  0  0  0  0
  4 16  1  0  0  0  0
  1 17  1  0  0  0  0
  1 18  1  0  0  0  0
  1 19  1  0  0  0  0
 13 20  1  0  0  0  0
 14 21  1  0  0  0  0
 15 22  1  0  0  0  0
 16 23  1  0  0  0  0
 17 24  1  0  0  0  0
M  END
