 xtb: 6.7.1 (edcfbbe)
          04062518003D

 24 24  0     0  0            999 V2000
   -2.5256   -0.9555    0.3749 C   0  0  0  0  0  0  0  0  0  0  0  0
   -1.0972   -0.4531    0.6340 C   0  0  0  0  0  0  0  0  0  0  0  0
   -0.9379   -0.3500    1.7182 H   0  0  0  0  0  0  0  0  0  0  0  0
   -0.8328    0.9120   -0.0340 C   0  0  0  0  0  0  0  0  0  0  0  0
   -1.0246    0.8114   -1.1117 H   0  0  0  0  0  0  0  0  0  0  0  0
    0.6373    1.2893    0.1813 C   0  0  0  0  0  0  0  0  0  0  0  0
    0.7958    1.4680    1.2515 H   0  0  0  0  0  0  0  0  0  0  0  0
    1.5729    0.1563   -0.2765 C   0  0  0  0  0  0  0  0  0  0  0  0
    1.5256    0.0526   -1.3727 H   0  0  0  0  0  0  0  0  0  0  0  0
    1.1444   -1.1875    0.3269 C   0  0  0  0  0  0  0  0  0  0  0  0
    1.3442   -1.1532    1.4174 H   0  0  0  0  0  0  0  0  0  0  0  0
   -0.2258   -1.4378    0.1079 O   0  0  0  0  0  0  0  0  0  0  0  0
    1.8538   -2.1926   -0.2919 O   0  0  0  0  0  0  0  0  0  0  0  0
    2.8904    0.4122    0.1325 O   0  0  0  0  0  0  0  0  0  0  0  0
    0.9979    2.4940   -0.4458 O   0  0  0  0  0  0  0  0  0  0  0  0
   -1.6270    1.9262    0.5286 O   0  0  0  0  0  0  0  0  0  0  0  0
   -2.8363   -0.9996   -0.9932 O   0  0  0  0  0  0  0  0  0  0  0  0
   -3.2405   -0.2749    0.8386 H   0  0  0  0  0  0  0  0  0  0  0  0
   -2.6280   -1.9460    0.8322 H   0  0  0  0  0  0  0  0  0  0  0  0
    1.5562   -3.0568    0.0349 H   0  0  0  0  0  0  0  0  0  0  0  0
    3.1023    1.3333   -0.0917 H   0  0  0  0  0  0  0  0  0  0  0  0
    0.6829    2.4998   -1.3618 H   0  0  0  0  0  0  0  0  0  0  0  0
   -2.5184    1.8886    0.1549 H   0  0  0  0  0  0  0  0  0  0  0  0
   -2.2517   -1.6430   -1.4189 H   0  0  0  0  0  0  0  0  0  0  0  0
  1  2  1  0  0  0  0
  2  3  1  0  0  0  0
  2  4  1  0  0  0  0
  4  5  1  0  0  0  0
  4  6  1  0  0  0  0
  6  7  1  0  0  0  0
  6  8  1  0  0  0  0
  8  9  1  0  0  0  0
  8 10  1  0  0  0  0
 10 11  1  0  0  0  0
  2 12  1  0  0  0  0
 10 12  1  0  0  0  0
 10 13  1  0  0  0  0
  8 14  1  0  0  0  0
  6 15  1  0  0  0  0
  4 16  1  0  0  0  0
  1 17  1  0  0  0  0
  1 18  1  0  0  0  0
  1 19  1  0  0  0  0
 13 20  1  0  0  0  0
 14 21  1  0  0  0  0
 15 22  1  0  0  0  0
 16 23  1  0  0  0  0
 17 24  1  0  0  0  0
M  END
