8
 xtb: 6.7.1 (edcfbbe)
C           -0.99279655238923       -1.59576842916771        0.00001723581763
S           -0.48429801597828        0.12174918053929        0.00004517510383
O           -0.82847930241167        0.76735099706032        1.26804647768403
O           -0.82930590208244        0.76770102112482       -1.26753196794176
Cl           1.64256849728715       -0.09809800382598       -0.00058123403442
H           -0.60539851275504       -2.06518934705799        0.90628267320722
H           -2.08793374900077       -1.57234714968149        0.00101706109940
H           -0.60699916325826       -2.06461970122368       -0.90721937766984
