 xtb: 6.7.1 (edcfbbe)
          04042516023D

 14 13  0     0  0            999 V2000
   -2.1131   -0.5447   -0.7077 C   0  0  0  0  0  0  0  0  0  0  0  0
   -1.3560   -0.3261    0.6060 C   0  0  0  0  0  0  0  0  0  0  0  0
   -0.0079    0.2740    0.3072 C   0  0  0  0  0  0  0  0  0  0  0  0
    0.2562    1.4575    0.3519 O   0  0  0  0  0  0  0  0  0  0  0  0
    0.8719   -0.6530   -0.0534 O   0  0  0  0  0  0  0  0  0  0  0  0
    2.1844   -0.2174   -0.4158 C   0  0  0  0  0  0  0  0  0  0  0  0
   -2.2399    0.3996   -1.2318 H   0  0  0  0  0  0  0  0  0  0  0  0
   -1.5651   -1.2310   -1.3480 H   0  0  0  0  0  0  0  0  0  0  0  0
   -3.0931   -0.9633   -0.4997 H   0  0  0  0  0  0  0  0  0  0  0  0
   -1.2123   -1.2799    1.1114 H   0  0  0  0  0  0  0  0  0  0  0  0
   -1.9062    0.3615    1.2470 H   0  0  0  0  0  0  0  0  0  0  0  0
    2.1244    0.5434   -1.1949 H   0  0  0  0  0  0  0  0  0  0  0  0
    2.6999   -1.1037   -0.7717 H   0  0  0  0  0  0  0  0  0  0  0  0
    2.6884    0.2052    0.4541 H   0  0  0  0  0  0  0  0  0  0  0  0
  1  2  1  0  0  0  0
  2  3  1  0  0  0  0
  3  4  2  0  0  0  0
  3  5  1  0  0  0  0
  5  6  1  0  0  0  0
  1  7  1  0  0  0  0
  1  8  1  0  0  0  0
  1  9  1  0  0  0  0
  2 10  1  0  0  0  0
  2 11  1  0  0  0  0
  6 12  1  0  0  0  0
  6 13  1  0  0  0  0
  6 14  1  0  0  0  0
M  END
