 xtb: 6.7.1 (edcfbbe)
          04032521183D

 18 18  0     0  0            999 V2000
   -0.6920   -3.0127   -0.0045 C   0  0  0  0  0  0  0  0  0  0  0  0
    0.6914   -3.0128    0.0043 C   0  0  0  0  0  0  0  0  0  0  0  0
    1.3857   -1.8141    0.0119 C   0  0  0  0  0  0  0  0  0  0  0  0
    0.6995   -0.6059    0.0116 C   0  0  0  0  0  0  0  0  0  0  0  0
   -0.6997   -0.6057   -0.0116 C   0  0  0  0  0  0  0  0  0  0  0  0
   -1.3861   -1.8138   -0.0120 C   0  0  0  0  0  0  0  0  0  0  0  0
   -1.5010    0.6674   -0.0026 C   0  0  0  0  0  0  0  0  0  0  0  0
   -1.5712    1.2280    1.2239 F   0  0  0  0  0  0  0  0  0  0  0  0
   -1.0295    1.6193   -0.8274 F   0  0  0  0  0  0  0  0  0  0  0  0
   -2.7763    0.4709   -0.3769 F   0  0  0  0  0  0  0  0  0  0  0  0
    1.5011    0.6671    0.0028 C   0  0  0  0  0  0  0  0  0  0  0  0
    1.0299    1.6189    0.8277 F   0  0  0  0  0  0  0  0  0  0  0  0
    2.7764    0.4703    0.3770 F   0  0  0  0  0  0  0  0  0  0  0  0
    1.5714    1.2279   -1.2236 F   0  0  0  0  0  0  0  0  0  0  0  0
   -1.2388   -3.9411   -0.0065 H   0  0  0  0  0  0  0  0  0  0  0  0
    1.2380   -3.9414    0.0062 H   0  0  0  0  0  0  0  0  0  0  0  0
    2.4638   -1.8094    0.0232 H   0  0  0  0  0  0  0  0  0  0  0  0
   -2.4641   -1.8089   -0.0233 H   0  0  0  0  0  0  0  0  0  0  0  0
  1  2  4  0  0  0  0
  2  3  4  0  0  0  0
  3  4  4  0  0  0  0
  4  5  4  0  0  0  0
  1  6  4  0  0  0  0
  5  6  4  0  0  0  0
  5  7  1  0  0  0  0
  7  8  1  0  0  0  0
  7  9  1  0  0  0  0
  7 10  1  0  0  0  0
  4 11  1  0  0  0  0
 11 12  1  0  0  0  0
 11 13  1  0  0  0  0
 11 14  1  0  0  0  0
  1 15  1  0  0  0  0
  2 16  1  0  0  0  0
  3 17  1  0  0  0  0
  6 18  1  0  0  0  0
M  END
