 xtb: 6.7.1 (edcfbbe)
          04032521463D

 13 13  0     0  0            999 V2000
    0.8296   -1.8410    0.0001 C   0  0  0  0  0  0  0  0  0  0  0  0
    1.8594   -0.9183    0.0000 C   0  0  0  0  0  0  0  0  0  0  0  0
    1.5726    0.4435    0.0000 C   0  0  0  0  0  0  0  0  0  0  0  0
    0.2451    0.8684   -0.0000 C   0  0  0  0  0  0  0  0  0  0  0  0
   -0.7634   -0.0742    0.0000 C   0  0  0  0  0  0  0  0  0  0  0  0
   -0.4931   -1.4319    0.0001 C   0  0  0  0  0  0  0  0  0  0  0  0
   -2.4181    0.4676    0.0000 Cl  0  0  0  0  0  0  0  0  0  0  0  0
    2.5347    1.3942   -0.0000 O   0  0  0  0  0  0  0  0  0  0  0  0
    1.0578   -2.8948    0.0001 H   0  0  0  0  0  0  0  0  0  0  0  0
    2.8847   -1.2552    0.0001 H   0  0  0  0  0  0  0  0  0  0  0  0
    0.0297    1.9240   -0.0000 H   0  0  0  0  0  0  0  0  0  0  0  0
   -1.2980   -2.1476    0.0001 H   0  0  0  0  0  0  0  0  0  0  0  0
    3.4184    0.9938   -0.0000 H   0  0  0  0  0  0  0  0  0  0  0  0
  1  2  4  0  0  0  0
  2  3  4  0  0  0  0
  3  4  4  0  0  0  0
  4  5  4  0  0  0  0
  1  6  4  0  0  0  0
  5  6  4  0  0  0  0
  5  7  1  0  0  0  0
  3  8  1  0  0  0  0
  1  9  1  0  0  0  0
  2 10  1  0  0  0  0
  4 11  1  0  0  0  0
  6 12  1  0  0  0  0
  8 13  1  0  0  0  0
M  END
