11
 xtb: 6.7.1 (edcfbbe)
C           -3.21020207889834       -0.04736491422315        0.00001362169069
C           -1.78483330741838        0.50965525265529        0.00000263184270
C           -0.79444064085886       -0.63147430695339       -0.00000001094166
Br           1.09241272673352        0.02639097648595       -0.00003481252887
H           -3.39292781371719       -0.66381060564021        0.88652659424081
H           -3.93929734213480        0.76870522641110        0.00001944607757
H           -3.39294108672322       -0.66380984099358       -0.88649667806956
H           -1.62740615756172        1.13744610336016        0.88313803331594
H           -1.62742017706953        1.13744430732551       -0.88313672619794
H           -0.87328467810954       -1.25208731196637       -0.89304837954939
H           -0.87327900611852       -1.25209181849203        0.89304568751361
