 xtb: 6.7.1 (edcfbbe)
          04042521073D

 15 14  0     0  0            999 V2000
   -2.3150    0.1706   -0.2720 C   0  0  0  0  0  0  0  0  0  0  0  0
   -0.9536    0.3470    0.3953 C   0  0  0  0  0  0  0  0  0  0  0  0
   -0.0003   -0.7399   -0.0010 C   0  0  0  0  0  0  0  0  0  0  0  0
    1.3080   -0.6030   -0.1557 C   0  0  0  0  0  0  0  0  0  0  0  0
    2.0735    0.6704    0.0392 C   0  0  0  0  0  0  0  0  0  0  0  0
   -2.7577   -0.7831    0.0074 H   0  0  0  0  0  0  0  0  0  0  0  0
   -2.2118    0.1968   -1.3546 H   0  0  0  0  0  0  0  0  0  0  0  0
   -2.9927    0.9658    0.0290 H   0  0  0  0  0  0  0  0  0  0  0  0
   -0.5411    1.3211    0.1297 H   0  0  0  0  0  0  0  0  0  0  0  0
   -1.0838    0.3262    1.4826 H   0  0  0  0  0  0  0  0  0  0  0  0
   -0.4536   -1.7100   -0.1590 H   0  0  0  0  0  0  0  0  0  0  0  0
    1.8937   -1.4622   -0.4546 H   0  0  0  0  0  0  0  0  0  0  0  0
    1.9330    1.3321   -0.8160 H   0  0  0  0  0  0  0  0  0  0  0  0
    3.1358    0.4647    0.1362 H   0  0  0  0  0  0  0  0  0  0  0  0
    1.7370    1.1958    0.9301 H   0  0  0  0  0  0  0  0  0  0  0  0
  1  2  1  0  0  0  0
  2  3  1  0  0  0  0
  3  4  2  0  0  0  0
  4  5  1  0  0  0  0
  1  6  1  0  0  0  0
  1  7  1  0  0  0  0
  1  8  1  0  0  0  0
  2  9  1  0  0  0  0
  2 10  1  0  0  0  0
  3 11  1  0  0  0  0
  4 12  1  0  0  0  0
  5 13  1  0  0  0  0
  5 14  1  0  0  0  0
  5 15  1  0  0  0  0
M  END
