 xtb: 6.7.1 (edcfbbe)
          04062517243D

 26 27  0     0  0            999 V2000
   -4.7807   -0.8096    0.1367 C   0  0  0  0  0  0  0  0  0  0  0  0
   -3.4209   -0.8525   -0.3513 N   0  0  0  0  0  0  0  0  0  0  0  0
   -2.4560   -0.0492    0.1040 C   0  0  0  0  0  0  0  0  0  0  0  0
   -2.5895    0.8160    0.9497 O   0  0  0  0  0  0  0  0  0  0  0  0
   -1.2774   -0.3544   -0.5045 O   0  0  0  0  0  0  0  0  0  0  0  0
   -0.1498    0.4381   -0.2969 C   0  0  0  0  0  0  0  0  0  0  0  0
   -0.2046    1.8058   -0.3215 C   0  0  0  0  0  0  0  0  0  0  0  0
    0.9692    2.5563   -0.1566 C   0  0  0  0  0  0  0  0  0  0  0  0
    2.1736    1.9369    0.0173 C   0  0  0  0  0  0  0  0  0  0  0  0
    2.2610    0.5289    0.0369 C   0  0  0  0  0  0  0  0  0  0  0  0
    1.0814   -0.2448   -0.1200 C   0  0  0  0  0  0  0  0  0  0  0  0
    1.1722   -1.6515   -0.0944 C   0  0  0  0  0  0  0  0  0  0  0  0
    2.3802   -2.2676    0.0800 C   0  0  0  0  0  0  0  0  0  0  0  0
    3.5491   -1.5065    0.2331 C   0  0  0  0  0  0  0  0  0  0  0  0
    3.4903   -0.1410    0.2119 C   0  0  0  0  0  0  0  0  0  0  0  0
   -5.0494   -1.7630    0.5901 H   0  0  0  0  0  0  0  0  0  0  0  0
   -5.4657   -0.5878   -0.6805 H   0  0  0  0  0  0  0  0  0  0  0  0
   -4.8417   -0.0226    0.8857 H   0  0  0  0  0  0  0  0  0  0  0  0
   -3.1805   -1.5298   -1.0592 H   0  0  0  0  0  0  0  0  0  0  0  0
   -1.1505    2.3072   -0.4546 H   0  0  0  0  0  0  0  0  0  0  0  0
    0.9015    3.6328   -0.1735 H   0  0  0  0  0  0  0  0  0  0  0  0
    3.0763    2.5150    0.1425 H   0  0  0  0  0  0  0  0  0  0  0  0
    0.2683   -2.2284   -0.2141 H   0  0  0  0  0  0  0  0  0  0  0  0
    2.4411   -3.3449    0.1014 H   0  0  0  0  0  0  0  0  0  0  0  0
    4.4944   -2.0094    0.3687 H   0  0  0  0  0  0  0  0  0  0  0  0
    4.3861    0.4503    0.3293 H   0  0  0  0  0  0  0  0  0  0  0  0
  1  2  1  0  0  0  0
  2  3  4  0  0  0  0
  3  4  2  0  0  0  0
  3  5  1  0  0  0  0
  5  6  1  0  0  0  0
  6  7  2  0  0  0  0
  7  8  4  0  0  0  0
  8  9  2  0  0  0  0
  9 10  4  0  0  0  0
  6 11  4  0  0  0  0
 10 11  4  0  0  0  0
 11 12  4  0  0  0  0
 12 13  2  0  0  0  0
 13 14  4  0  0  0  0
 10 15  4  0  0  0  0
 14 15  2  0  0  0  0
  1 16  1  0  0  0  0
  1 17  1  0  0  0  0
  1 18  1  0  0  0  0
  2 19  1  0  0  0  0
  7 20  1  0  0  0  0
  8 21  1  0  0  0  0
  9 22  1  0  0  0  0
 12 23  1  0  0  0  0
 13 24  1  0  0  0  0
 14 25  1  0  0  0  0
 15 26  1  0  0  0  0
M  END
