 xtb: 6.7.1 (edcfbbe)
          04062518003D

 24 24  0     0  0            999 V2000
   -2.5529   -0.6832   -0.3655 C   0  0  0  0  0  0  0  0  0  0  0  0
   -1.1759   -0.3135    0.2011 C   0  0  0  0  0  0  0  0  0  0  0  0
   -1.2356   -0.2341    1.2991 H   0  0  0  0  0  0  0  0  0  0  0  0
   -0.6972    1.0366   -0.3505 C   0  0  0  0  0  0  0  0  0  0  0  0
   -0.6793    0.9784   -1.4510 H   0  0  0  0  0  0  0  0  0  0  0  0
    0.7270    1.3196    0.1629 C   0  0  0  0  0  0  0  0  0  0  0  0
    0.6816    1.4318    1.2545 H   0  0  0  0  0  0  0  0  0  0  0  0
    1.6551    0.1489   -0.1934 C   0  0  0  0  0  0  0  0  0  0  0  0
    1.7294    0.0455   -1.2820 H   0  0  0  0  0  0  0  0  0  0  0  0
    1.0359   -1.1581    0.3475 C   0  0  0  0  0  0  0  0  0  0  0  0
    0.9965   -1.1039    1.4597 H   0  0  0  0  0  0  0  0  0  0  0  0
   -0.2685   -1.3395   -0.1498 O   0  0  0  0  0  0  0  0  0  0  0  0
    1.8032   -2.2261   -0.0666 O   0  0  0  0  0  0  0  0  0  0  0  0
    2.9666    0.3526    0.2477 O   0  0  0  0  0  0  0  0  0  0  0  0
    1.1941    2.5577   -0.3111 O   0  0  0  0  0  0  0  0  0  0  0  0
   -1.5891    2.0360    0.0694 O   0  0  0  0  0  0  0  0  0  0  0  0
   -3.1715   -1.7422    0.3144 O   0  0  0  0  0  0  0  0  0  0  0  0
   -2.4212   -1.0246   -1.3937 H   0  0  0  0  0  0  0  0  0  0  0  0
   -3.1747    0.2187   -0.3530 H   0  0  0  0  0  0  0  0  0  0  0  0
    1.2800   -3.0409   -0.0002 H   0  0  0  0  0  0  0  0  0  0  0  0
    2.9965    0.4021    1.2142 H   0  0  0  0  0  0  0  0  0  0  0  0
    1.5543    2.4598   -1.2041 H   0  0  0  0  0  0  0  0  0  0  0  0
   -1.1584    2.8981   -0.0517 H   0  0  0  0  0  0  0  0  0  0  0  0
   -3.3969   -1.4644    1.2138 H   0  0  0  0  0  0  0  0  0  0  0  0
  1  2  1  0  0  0  0
  2  3  1  0  0  0  0
  2  4  1  0  0  0  0
  4  5  1  0  0  0  0
  4  6  1  0  0  0  0
  6  7  1  0  0  0  0
  6  8  1  0  0  0  0
  8  9  1  0  0  0  0
  8 10  1  0  0  0  0
 10 11  1  0  0  0  0
  2 12  1  0  0  0  0
 10 12  1  0  0  0  0
 10 13  1  0  0  0  0
  8 14  1  0  0  0  0
  6 15  1  0  0  0  0
  4 16  1  0  0  0  0
  1 17  1  0  0  0  0
  1 18  1  0  0  0  0
  1 19  1  0  0  0  0
 13 20  1  0  0  0  0
 14 21  1  0  0  0  0
 15 22  1  0  0  0  0
 16 23  1  0  0  0  0
 17 24  1  0  0  0  0
M  END
