 xtb: 6.7.1 (edcfbbe)
          04062501173D

 23 22  0     0  0            999 V2000
   -2.9990    0.2543    0.0000 C   0  0  0  0  0  0  0  0  0  0  0  0
   -1.6379   -0.4338   -0.0001 C   0  0  0  0  0  0  0  0  0  0  0  0
   -0.5065    0.5929   -0.0005 C   0  0  0  0  0  0  0  0  0  0  0  0
    0.9249    0.0251   -0.0000 C   0  0  0  0  0  0  0  0  0  0  0  0
    1.1800   -0.8208   -1.2500 C   0  0  0  0  0  0  0  0  0  0  0  0
    1.8990    1.2094    0.0005 C   0  0  0  0  0  0  0  0  0  0  0  0
    1.1791   -0.8210    1.2500 C   0  0  0  0  0  0  0  0  0  0  0  0
   -3.7996   -0.4817    0.0006 H   0  0  0  0  0  0  0  0  0  0  0  0
   -3.1093    0.8824    0.8814 H   0  0  0  0  0  0  0  0  0  0  0  0
   -3.1098    0.8816   -0.8819 H   0  0  0  0  0  0  0  0  0  0  0  0
   -1.5633   -1.0698    0.8830 H   0  0  0  0  0  0  0  0  0  0  0  0
   -1.5636   -1.0702   -0.8829 H   0  0  0  0  0  0  0  0  0  0  0  0
   -0.6218    1.2316    0.8794 H   0  0  0  0  0  0  0  0  0  0  0  0
   -0.6216    1.2308   -0.8810 H   0  0  0  0  0  0  0  0  0  0  0  0
    0.5726   -1.7218   -1.2432 H   0  0  0  0  0  0  0  0  0  0  0  0
    0.9497   -0.2536   -2.1491 H   0  0  0  0  0  0  0  0  0  0  0  0
    2.2250   -1.1198   -1.2921 H   0  0  0  0  0  0  0  0  0  0  0  0
    1.7493    1.8289   -0.8810 H   0  0  0  0  0  0  0  0  0  0  0  0
    2.9281    0.8572   -0.0000 H   0  0  0  0  0  0  0  0  0  0  0  0
    1.7498    1.8277    0.8829 H   0  0  0  0  0  0  0  0  0  0  0  0
    0.9465   -0.2547    2.1490 H   0  0  0  0  0  0  0  0  0  0  0  0
    0.5728   -1.7229    1.2418 H   0  0  0  0  0  0  0  0  0  0  0  0
    2.2244   -1.1187    1.2938 H   0  0  0  0  0  0  0  0  0  0  0  0
  1  2  1  0  0  0  0
  2  3  1  0  0  0  0
  3  4  1  0  0  0  0
  4  5  1  0  0  0  0
  4  6  1  0  0  0  0
  4  7  1  0  0  0  0
  1  8  1  0  0  0  0
  1  9  1  0  0  0  0
  1 10  1  0  0  0  0
  2 11  1  0  0  0  0
  2 12  1  0  0  0  0
  3 13  1  0  0  0  0
  3 14  1  0  0  0  0
  5 15  1  0  0  0  0
  5 16  1  0  0  0  0
  5 17  1  0  0  0  0
  6 18  1  0  0  0  0
  6 19  1  0  0  0  0
  6 20  1  0  0  0  0
  7 21  1  0  0  0  0
  7 22  1  0  0  0  0
  7 23  1  0  0  0  0
M  END
