24
 xtb: 6.7.1 (edcfbbe)
C           -2.57933775380751       -0.86370434229044        0.32628403668779
C           -1.15064301620690       -0.42451065275653        0.58663029062034
H           -1.00229318875135       -0.36947976419806        1.67813182668381
C           -0.80459370174090        0.92791405224921       -0.03632746312263
H           -0.99742320923035        0.88567152407117       -1.11841257453353
C            0.66673209295042        1.24350563644604        0.18878258915862
H            0.83961552933787        1.37902456308236        1.26838618837515
C            1.54209694004065        0.10178149014176       -0.30729745862794
H            1.43782516748231        0.00180991440194       -1.39828280136389
C            1.08900902761990       -1.20350187858647        0.33846735359858
H            1.21063818209642       -1.16178021833943        1.43354427518437
O           -0.29119284918807       -1.43266714445997        0.02630458672146
O            1.83559159128453       -2.25398577262025       -0.21565558534642
O            2.89103707979229        0.41452784325824        0.04815135650361
O            0.94928732047465        2.46333242512393       -0.50829163592858
O           -1.64182730789064        1.91005755582112        0.58177321258755
O           -2.91163871334473       -0.90463445858226       -1.06610111612183
H           -3.26474606419975       -0.15245520014804        0.79351063902036
H           -2.73305430754445       -1.84702758653874        0.79106337831239
H            1.78608729023677       -3.01086587734583        0.38375413337741
H            3.46552376061907       -0.22233492718764       -0.39739223249483
H            1.84589057108207        2.73406462224664       -0.27068165629452
H           -1.39350718731277        2.76896168907296        0.21413854403899
H           -2.34527221292276       -1.56981204521119       -1.47916319020047
