18
CONF4
C 1.8992334822 -1.0460311332 0.0769011702
C 1.0995476646 0.1871007882 0.4883828343
C -0.3666196108 0.2065782633 0.0267706266
C -1.0285095484 1.5051035794 0.4653338316
C -1.1490809696 -0.9980208735 0.5419115461
O -0.4242157532 0.2239963738 -1.4302533864
H 2.9407126763 -0.9439218147 0.3973430010
H 1.9085081887 -1.1826638778 -1.0103711728
H 1.5039483268 -1.9596519762 0.5309265342
H 1.5827488223 1.0875475393 0.0892135534
H 1.1091350474 0.2803161676 1.5813358046
H -0.4825770345 2.3679920657 0.0703548764
H -2.0614595115 1.5499573248 0.1063967096
H -1.0390236769 1.5737425898 1.5567385847
H -2.2006702485 -0.9175881697 0.2495034359
H -0.7509452884 -1.9326463192 0.1340000889
H -1.0960643545 -1.0532066506 1.6341332214
H -0.0986163830 -0.6310329135 -1.7409225324
18
CONF3
C 1.9210602713 -0.3891906219 0.9862372388
C 1.1057491224 -0.3691666853 -0.3048370326
C -0.3567861189 0.0785191303 -0.1609734269
C -0.4681804285 1.5153785166 0.3393740113
C -1.1606026988 -0.8685834680 0.7175980551
O -0.9776511672 -0.0081028322 -1.4788081489
H 1.9770617008 0.6018133102 1.4470841747
H 2.9456246510 -0.7139035255 0.7794771152
H 1.4986170797 -1.0822894731 1.7205077706
H 1.1014508422 -1.3714484921 -0.7510522474
H 1.5887546047 0.3015158904 -1.0287002501
H -0.0756349065 1.6142387854 1.3555915367
H 0.0937455572 2.1942044509 -0.3122069242
H -1.5167600530 1.8287690279 0.3490555448
H -1.0749630472 -1.8988459086 0.3567699964
H -0.8065399781 -0.8327496047 1.7507685899
H -2.2171497752 -0.5822458526 0.7117070824
H -0.4895088631 0.5923126553 -2.0588945476
18
CONF5
C 2.1169766468 -0.0038932543 -0.0140232868
C 0.8303054608 -0.6885359735 0.4370864166
C -0.4695328594 0.0321033641 0.0452581055
C -0.4978849115 1.4782653774 0.5180251875
C -1.6697833710 -0.7368204433 0.5926521752
O -0.5734397217 0.0990298700 -1.4070893076
H 2.9812042839 -0.6404422051 0.2003803013
H 2.2736828794 0.9478377057 0.5028798956
H 2.1081640993 0.1922716043 -1.0910790240
H 0.8366348838 -0.8090560801 1.5275057586
H 0.7827488762 -1.7005484954 0.0121426190
H 0.2927996845 2.0650402087 0.0422234510
H -1.4611915456 1.9375203314 0.2742826954
H -0.3578951802 1.5244447806 1.6020456694
H -2.6041864806 -0.2665333635 0.2705882214
H -1.6574606188 -1.7723541398 0.2338177772
H -1.6507121331 -0.7550085633 1.6871324020
H -0.5710842177 -0.8121672552 -1.7312928123
18
CONF2
C 1.8716942889 -1.0758703778 0.0570310201
C 1.1009179157 0.1756210049 0.4661652499
C -0.3711242221 0.2147410822 0.0264116213
C -1.0277023593 1.4952956078 0.5363734076
C -1.1478404920 -1.0091201102 0.4899417366
O -0.4478842623 0.1909223805 -1.4285651967
H 1.8083091891 -1.2502747517 -1.0218602742
H 1.4970546849 -1.9681908045 0.5676594190
H 2.9303708729 -0.9708944306 0.3142797617
H 1.5920317664 1.0643258091 0.0470813781
H 1.1323165174 0.2887633537 1.5568126129
H -0.4790801883 2.3757584690 0.1825798571
H -2.0612778100 1.5620717793 0.1825215222
H -1.0350180130 1.5155424963 1.6309246195
H -2.2034323130 -0.9137689007 0.2163693775
H -0.7558789852 -1.9217660221 0.0323742487
H -1.0801502171 -1.1107240355 1.5770305849
H 0.0090745206 0.9812704560 -1.7472894503
18
CONF1
C 2.1624725274 -0.0052576351 0.0251089433
C 0.8720354093 -0.7020969737 0.4484869046
C -0.4244309616 0.0010221751 0.0333970333
C -0.4835001767 1.4483038252 0.5144663077
C -1.6290709438 -0.7824552208 0.5492018949
O -0.4384545327 -0.0192213264 -1.4239963141
H 2.2888167616 0.9570874636 0.5302477728
H 2.1887660842 0.1720794855 -1.0544765429
H 3.0274829125 -0.6255999173 0.2803144515
H 0.8532861448 -0.8134533038 1.5388363532
H 0.8450379387 -1.7152629906 0.0280813159
H -1.4440055904 1.8977640290 0.2386688793
H -0.3846969516 1.4982139671 1.6039795643
H 0.3155275370 2.0451174334 0.0661189699
H -1.6531468688 -0.7776426558 1.6438207042
H -2.5607156424 -0.3337191880 0.1865903078
H -1.5862797323 -1.8217916064 0.2076956320
H -1.2544685436 0.4172227088 -1.7031170541
