12
CONF1
C 2.1078476375 0.0166872842 0.0002994674
N 0.6705126698 -0.0033883584 -0.0003678595
C -0.1203883940 -1.1153486970 -0.0002037043
C -1.4088776228 -0.6640953306 0.0002172956
N -1.4252920335 0.6964237023 0.0001323465
C -0.1653838418 1.0541620737 -0.0001676810
H 2.4910249671 -0.4844696354 -0.8892712596
H 2.4481580408 1.0494489635 0.0057241563
H 2.4899543584 -0.4933877942 0.8851870329
H 0.2853602949 -2.1052256167 -0.0003749144
H -2.3224991871 -1.2241562226 0.0005130358
H 0.1729726208 2.0708188125 -0.0002376155
12
CONF2
C 2.1084488274 0.0245355836 0.0009967442
N 0.6705497798 -0.0096508872 -0.0013521935
C -0.1236026938 -1.1176498304 -0.0003145603
C -1.4112642625 -0.6628566026 0.0003216211
N -1.4233488538 0.6975919543 0.0006457942
C -0.1624992904 1.0517028918 -0.0005665736
H 2.4713835468 0.5210184093 0.9015617514
H 2.4891707185 -0.9934036210 -0.0253581859
H 2.4722997868 0.5677847934 -0.8714246802
H 0.2764813288 -2.1097809139 -0.0006874685
H -2.3265963233 -1.2200431743 0.0012309296
H 0.1799181688 2.0666873051 -0.0007160683
