12
CONF1
C 2.1188989425 0.0184277688 0.0001821577
N 0.6608113024 -0.0059645783 0.0004349423
C -0.1354096641 -1.1288708813 0.0000869117
C -1.4264649611 -0.6679898636 -0.0002003549
N -1.4461612786 0.7128619639 -0.0001102608
C -0.1693774150 1.0689166014 0.0002653454
H 2.5056153190 -0.4787797627 -0.8930708594
H 2.4516548912 1.0572474514 0.0048572759
H 2.5057183432 -0.4868108905 0.8888443295
H 0.2855054842 -2.1232297197 0.0001209483
H -2.3368324871 -1.2507537974 -0.0003880425
H 0.2094308522 2.0824148156 0.0004279636
12
CONF2
C 2.1202790780 0.0296041310 0.0015267912
N 0.6602270233 -0.0059786874 -0.0023315041
C -0.1366167316 -1.1283657989 0.0000363158
C -1.4280421556 -0.6678114437 0.0012052598
N -1.4467263590 0.7128553107 0.0003395120
C -0.1698285464 1.0690574558 -0.0015769267
H 2.4856502208 0.5192579051 0.9077080437
H 2.4958453353 -0.9934857802 -0.0280119032
H 2.4870393287 0.5709926527 -0.8739752692
H 0.2833141409 -2.1228925167 -0.0000121806
H -2.3384934456 -1.2502802655 0.0021158086
H 0.2082929367 2.0829829694 -0.0026867583
