 xtb: 6.7.1 (edcfbbe)
          04062518003D

 24 24  0     0  0            999 V2000
   -2.0808   -1.3544   -0.1397 C   0  0  0  0  0  0  0  0  0  0  0  0
   -1.0172   -0.5018    0.5716 C   0  0  0  0  0  0  0  0  0  0  0  0
   -1.4525   -0.1307    1.5083 H   0  0  0  0  0  0  0  0  0  0  0  0
   -0.6184    0.7058   -0.2820 C   0  0  0  0  0  0  0  0  0  0  0  0
   -0.4753    0.3965   -1.3303 H   0  0  0  0  0  0  0  0  0  0  0  0
    0.7214    1.2460    0.2309 C   0  0  0  0  0  0  0  0  0  0  0  0
    0.6652    1.3764    1.3197 H   0  0  0  0  0  0  0  0  0  0  0  0
    1.7997    0.1935   -0.0876 C   0  0  0  0  0  0  0  0  0  0  0  0
    2.0690    0.2864   -1.1468 H   0  0  0  0  0  0  0  0  0  0  0  0
    1.2254   -1.2293    0.1028 C   0  0  0  0  0  0  0  0  0  0  0  0
    1.9839   -1.8209    0.6346 H   0  0  0  0  0  0  0  0  0  0  0  0
    0.1135   -1.2767    0.9582 O   0  0  0  0  0  0  0  0  0  0  0  0
    0.9479   -1.7538   -1.1582 O   0  0  0  0  0  0  0  0  0  0  0  0
    2.9273    0.3185    0.7456 O   0  0  0  0  0  0  0  0  0  0  0  0
    0.9563    2.4744   -0.4182 O   0  0  0  0  0  0  0  0  0  0  0  0
   -1.6456    1.6598   -0.2015 O   0  0  0  0  0  0  0  0  0  0  0  0
   -3.3389   -0.7283   -0.1369 O   0  0  0  0  0  0  0  0  0  0  0  0
   -2.2021   -2.2975    0.3985 H   0  0  0  0  0  0  0  0  0  0  0  0
   -1.7554   -1.5654   -1.1681 H   0  0  0  0  0  0  0  0  0  0  0  0
    0.7903   -2.7082   -1.0962 H   0  0  0  0  0  0  0  0  0  0  0  0
    3.5503    0.9591    0.3744 H   0  0  0  0  0  0  0  0  0  0  0  0
    1.6197    2.9867    0.0627 H   0  0  0  0  0  0  0  0  0  0  0  0
   -1.3004    2.5003   -0.5441 H   0  0  0  0  0  0  0  0  0  0  0  0
   -3.2229    0.2036   -0.3837 H   0  0  0  0  0  0  0  0  0  0  0  0
  1  2  1  0  0  0  0
  2  3  1  0  0  0  0
  2  4  1  0  0  0  0
  4  5  1  0  0  0  0
  4  6  1  0  0  0  0
  6  7  1  0  0  0  0
  6  8  1  0  0  0  0
  8  9  1  0  0  0  0
  8 10  1  0  0  0  0
 10 11  1  0  0  0  0
  2 12  1  0  0  0  0
 10 12  1  0  0  0  0
 10 13  1  0  0  0  0
  8 14  1  0  0  0  0
  6 15  1  0  0  0  0
  4 16  1  0  0  0  0
  1 17  1  0  0  0  0
  1 18  1  0  0  0  0
  1 19  1  0  0  0  0
 13 20  1  0  0  0  0
 14 21  1  0  0  0  0
 15 22  1  0  0  0  0
 16 23  1  0  0  0  0
 17 24  1  0  0  0  0
M  END
