 xtb: 6.7.1 (edcfbbe)
          04062518003D

 24 24  0     0  0            999 V2000
   -2.4278   -1.1025   -0.2780 C   0  0  0  0  0  0  0  0  0  0  0  0
   -1.0645   -0.5885    0.2079 C   0  0  0  0  0  0  0  0  0  0  0  0
   -1.0845   -0.5326    1.3086 H   0  0  0  0  0  0  0  0  0  0  0  0
   -0.7390    0.8025   -0.3544 C   0  0  0  0  0  0  0  0  0  0  0  0
   -0.6639    0.7210   -1.4478 H   0  0  0  0  0  0  0  0  0  0  0  0
    0.6296    1.2373    0.1974 C   0  0  0  0  0  0  0  0  0  0  0  0
    0.5640    1.3097    1.2918 H   0  0  0  0  0  0  0  0  0  0  0  0
    1.6893    0.1818   -0.1501 C   0  0  0  0  0  0  0  0  0  0  0  0
    1.8516    0.1798   -1.2371 H   0  0  0  0  0  0  0  0  0  0  0  0
    1.2190   -1.2227    0.2572 C   0  0  0  0  0  0  0  0  0  0  0  0
    1.2301   -1.2746    1.3664 H   0  0  0  0  0  0  0  0  0  0  0  0
   -0.0815   -1.5104   -0.2115 O   0  0  0  0  0  0  0  0  0  0  0  0
    2.0763   -2.1439   -0.3009 O   0  0  0  0  0  0  0  0  0  0  0  0
    2.8867    0.4340    0.5352 O   0  0  0  0  0  0  0  0  0  0  0  0
    1.0613    2.4609   -0.3579 O   0  0  0  0  0  0  0  0  0  0  0  0
   -1.7649    1.6940    0.0139 O   0  0  0  0  0  0  0  0  0  0  0  0
   -3.4965   -0.5217    0.4175 O   0  0  0  0  0  0  0  0  0  0  0  0
   -2.4773   -2.1773   -0.0928 H   0  0  0  0  0  0  0  0  0  0  0  0
   -2.5156   -0.9291   -1.3582 H   0  0  0  0  0  0  0  0  0  0  0  0
    1.7352   -3.0402   -0.1504 H   0  0  0  0  0  0  0  0  0  0  0  0
    3.2334    1.2906    0.2399 H   0  0  0  0  0  0  0  0  0  0  0  0
    0.6637    3.2002    0.1227 H   0  0  0  0  0  0  0  0  0  0  0  0
   -1.6915    2.5028   -0.5136 H   0  0  0  0  0  0  0  0  0  0  0  0
   -3.4000    0.4445    0.3720 H   0  0  0  0  0  0  0  0  0  0  0  0
  1  2  1  0  0  0  0
  2  3  1  0  0  0  0
  2  4  1  0  0  0  0
  4  5  1  0  0  0  0
  4  6  1  0  0  0  0
  6  7  1  0  0  0  0
  6  8  1  0  0  0  0
  8  9  1  0  0  0  0
  8 10  1  0  0  0  0
 10 11  1  0  0  0  0
  2 12  1  0  0  0  0
 10 12  1  0  0  0  0
 10 13  1  0  0  0  0
  8 14  1  0  0  0  0
  6 15  1  0  0  0  0
  4 16  1  0  0  0  0
  1 17  1  0  0  0  0
  1 18  1  0  0  0  0
  1 19  1  0  0  0  0
 13 20  1  0  0  0  0
 14 21  1  0  0  0  0
 15 22  1  0  0  0  0
 16 23  1  0  0  0  0
 17 24  1  0  0  0  0
M  END
