 xtb: 6.7.1 (edcfbbe)
          04062518003D

 24 24  0     0  0            999 V2000
   -2.2085   -1.0088   -0.4124 C   0  0  0  0  0  0  0  0  0  0  0  0
   -1.1440   -0.2596    0.3981 C   0  0  0  0  0  0  0  0  0  0  0  0
   -1.6290    0.1264    1.3039 H   0  0  0  0  0  0  0  0  0  0  0  0
   -0.5639    0.8982   -0.4247 C   0  0  0  0  0  0  0  0  0  0  0  0
   -0.3885    0.5724   -1.4561 H   0  0  0  0  0  0  0  0  0  0  0  0
    0.7813    1.3224    0.1849 C   0  0  0  0  0  0  0  0  0  0  0  0
    0.6387    1.5170    1.2632 H   0  0  0  0  0  0  0  0  0  0  0  0
    1.7850    0.1722    0.0177 C   0  0  0  0  0  0  0  0  0  0  0  0
    2.2228    0.2390   -0.9832 H   0  0  0  0  0  0  0  0  0  0  0  0
    1.0576   -1.1931    0.1267 C   0  0  0  0  0  0  0  0  0  0  0  0
    1.7011   -1.8714    0.7042 H   0  0  0  0  0  0  0  0  0  0  0  0
   -0.1208   -1.1196    0.8932 O   0  0  0  0  0  0  0  0  0  0  0  0
    0.8305   -1.6790   -1.1586 O   0  0  0  0  0  0  0  0  0  0  0  0
    2.8641    0.2504    0.9070 O   0  0  0  0  0  0  0  0  0  0  0  0
    1.2777    2.4812   -0.4334 O   0  0  0  0  0  0  0  0  0  0  0  0
   -1.4449    1.9857   -0.5192 O   0  0  0  0  0  0  0  0  0  0  0  0
   -2.9568   -1.8275    0.4567 O   0  0  0  0  0  0  0  0  0  0  0  0
   -1.7160   -1.5991   -1.1925 H   0  0  0  0  0  0  0  0  0  0  0  0
   -2.8501   -0.2530   -0.8850 H   0  0  0  0  0  0  0  0  0  0  0  0
    0.6414   -2.6297   -1.1281 H   0  0  0  0  0  0  0  0  0  0  0  0
    2.5406    0.3227    1.8176 H   0  0  0  0  0  0  0  0  0  0  0  0
    0.5215    2.9960   -0.7636 H   0  0  0  0  0  0  0  0  0  0  0  0
   -1.7201    2.2674    0.3670 H   0  0  0  0  0  0  0  0  0  0  0  0
   -3.6164   -2.3165   -0.0549 H   0  0  0  0  0  0  0  0  0  0  0  0
  1  2  1  0  0  0  0
  2  3  1  0  0  0  0
  2  4  1  0  0  0  0
  4  5  1  0  0  0  0
  4  6  1  0  0  0  0
  6  7  1  0  0  0  0
  6  8  1  0  0  0  0
  8  9  1  0  0  0  0
  8 10  1  0  0  0  0
 10 11  1  0  0  0  0
  2 12  1  0  0  0  0
 10 12  1  0  0  0  0
 10 13  1  0  0  0  0
  8 14  1  0  0  0  0
  6 15  1  0  0  0  0
  4 16  1  0  0  0  0
  1 17  1  0  0  0  0
  1 18  1  0  0  0  0
  1 19  1  0  0  0  0
 13 20  1  0  0  0  0
 14 21  1  0  0  0  0
 15 22  1  0  0  0  0
 16 23  1  0  0  0  0
 17 24  1  0  0  0  0
M  END
