 xtb: 6.7.1 (edcfbbe)
          04062518003D

 24 24  0     0  0            999 V2000
   -2.4724   -0.8152    0.0595 C   0  0  0  0  0  0  0  0  0  0  0  0
   -1.0745   -0.4952    0.6035 C   0  0  0  0  0  0  0  0  0  0  0  0
   -1.0122   -0.7732    1.6683 H   0  0  0  0  0  0  0  0  0  0  0  0
   -0.7532    1.0116    0.4948 C   0  0  0  0  0  0  0  0  0  0  0  0
   -1.6311    1.5192    0.0756 H   0  0  0  0  0  0  0  0  0  0  0  0
    0.4492    1.2401   -0.4499 C   0  0  0  0  0  0  0  0  0  0  0  0
    0.7777    2.2873   -0.3551 H   0  0  0  0  0  0  0  0  0  0  0  0
    1.6297    0.3661    0.0091 C   0  0  0  0  0  0  0  0  0  0  0  0
    2.3941    0.3601   -0.7744 H   0  0  0  0  0  0  0  0  0  0  0  0
    1.1721   -1.0999    0.2090 C   0  0  0  0  0  0  0  0  0  0  0  0
    1.2993   -1.3533    1.2859 H   0  0  0  0  0  0  0  0  0  0  0  0
   -0.1754   -1.2957   -0.1417 O   0  0  0  0  0  0  0  0  0  0  0  0
    1.9431   -1.9225   -0.5870 O   0  0  0  0  0  0  0  0  0  0  0  0
    2.2321    0.8905    1.1604 O   0  0  0  0  0  0  0  0  0  0  0  0
    0.1467    0.9325   -1.7834 O   0  0  0  0  0  0  0  0  0  0  0  0
   -0.4647    1.4892    1.7930 O   0  0  0  0  0  0  0  0  0  0  0  0
   -2.6407   -0.3355   -1.2489 O   0  0  0  0  0  0  0  0  0  0  0  0
   -3.2298   -0.3252    0.6732 H   0  0  0  0  0  0  0  0  0  0  0  0
   -2.6177   -1.9012    0.0991 H   0  0  0  0  0  0  0  0  0  0  0  0
    1.5260   -2.7969   -0.6480 H   0  0  0  0  0  0  0  0  0  0  0  0
    1.5384    1.0515    1.8265 H   0  0  0  0  0  0  0  0  0  0  0  0
   -0.5259    1.5468   -2.1136 H   0  0  0  0  0  0  0  0  0  0  0  0
   -0.6213    2.4433    1.8398 H   0  0  0  0  0  0  0  0  0  0  0  0
   -1.9237   -0.6975   -1.7921 H   0  0  0  0  0  0  0  0  0  0  0  0
  1  2  1  0  0  0  0
  2  3  1  0  0  0  0
  2  4  1  0  0  0  0
  4  5  1  0  0  0  0
  4  6  1  0  0  0  0
  6  7  1  0  0  0  0
  6  8  1  0  0  0  0
  8  9  1  0  0  0  0
  8 10  1  0  0  0  0
 10 11  1  0  0  0  0
  2 12  1  0  0  0  0
 10 12  1  0  0  0  0
 10 13  1  0  0  0  0
  8 14  1  0  0  0  0
  6 15  1  0  0  0  0
  4 16  1  0  0  0  0
  1 17  1  0  0  0  0
  1 18  1  0  0  0  0
  1 19  1  0  0  0  0
 13 20  1  0  0  0  0
 14 21  1  0  0  0  0
 15 22  1  0  0  0  0
 16 23  1  0  0  0  0
 17 24  1  0  0  0  0
M  END
