 xtb: 6.7.1 (edcfbbe)
          04062518003D

 24 24  0     0  0            999 V2000
   -2.3214   -0.8229   -0.6387 C   0  0  0  0  0  0  0  0  0  0  0  0
   -1.0568   -0.5340    0.1729 C   0  0  0  0  0  0  0  0  0  0  0  0
   -1.2074   -0.8983    1.2016 H   0  0  0  0  0  0  0  0  0  0  0  0
   -0.7363    0.9809    0.2503 C   0  0  0  0  0  0  0  0  0  0  0  0
   -1.5409    1.5408   -0.2370 H   0  0  0  0  0  0  0  0  0  0  0  0
    0.5955    1.2644   -0.4774 C   0  0  0  0  0  0  0  0  0  0  0  0
    0.8470    2.3203   -0.3285 H   0  0  0  0  0  0  0  0  0  0  0  0
    1.7080    0.3844    0.1361 C   0  0  0  0  0  0  0  0  0  0  0  0
    2.5859    0.4138   -0.5208 H   0  0  0  0  0  0  0  0  0  0  0  0
    1.2370   -1.0856    0.1963 C   0  0  0  0  0  0  0  0  0  0  0  0
    1.1343   -1.3651    1.2649 H   0  0  0  0  0  0  0  0  0  0  0  0
   -0.0094   -1.2647   -0.4451 O   0  0  0  0  0  0  0  0  0  0  0  0
    2.1658   -1.8727   -0.4505 O   0  0  0  0  0  0  0  0  0  0  0  0
    2.0277    0.7838    1.4488 O   0  0  0  0  0  0  0  0  0  0  0  0
    0.5028    1.0860   -1.8657 O   0  0  0  0  0  0  0  0  0  0  0  0
   -0.7025    1.4521    1.5730 O   0  0  0  0  0  0  0  0  0  0  0  0
   -3.4232   -0.2848    0.0487 O   0  0  0  0  0  0  0  0  0  0  0  0
   -2.4115   -1.9110   -0.7489 H   0  0  0  0  0  0  0  0  0  0  0  0
   -2.2136   -0.3715   -1.6327 H   0  0  0  0  0  0  0  0  0  0  0  0
    1.8426   -2.7856   -0.5132 H   0  0  0  0  0  0  0  0  0  0  0  0
    2.6225    1.5474    1.4284 H   0  0  0  0  0  0  0  0  0  0  0  0
    0.3673    0.1425   -2.0482 H   0  0  0  0  0  0  0  0  0  0  0  0
    0.1346    1.1754    1.9874 H   0  0  0  0  0  0  0  0  0  0  0  0
   -4.2282   -0.4459   -0.4640 H   0  0  0  0  0  0  0  0  0  0  0  0
  1  2  1  0  0  0  0
  2  3  1  0  0  0  0
  2  4  1  0  0  0  0
  4  5  1  0  0  0  0
  4  6  1  0  0  0  0
  6  7  1  0  0  0  0
  6  8  1  0  0  0  0
  8  9  1  0  0  0  0
  8 10  1  0  0  0  0
 10 11  1  0  0  0  0
  2 12  1  0  0  0  0
 10 12  1  0  0  0  0
 10 13  1  0  0  0  0
  8 14  1  0  0  0  0
  6 15  1  0  0  0  0
  4 16  1  0  0  0  0
  1 17  1  0  0  0  0
  1 18  1  0  0  0  0
  1 19  1  0  0  0  0
 13 20  1  0  0  0  0
 14 21  1  0  0  0  0
 15 22  1  0  0  0  0
 16 23  1  0  0  0  0
 17 24  1  0  0  0  0
M  END
