15
 xtb: 6.7.1 (edcfbbe)
C           -2.18578765636607        0.30598190508339       -0.42163803393420
C           -1.02779004436122        0.18398096987313        0.57622377770409
C           -0.00066593935684       -0.80385277047004        0.11318514558137
C            1.28840243220239       -0.57821560063794       -0.16547735161328
C            2.03159356486390        0.71547308986908       -0.06531253020588
H           -1.82888310164389        0.67471641971691       -1.38892060638838
H           -2.94946272755113        0.99838325604036       -0.05316397492434
H           -2.66324317247298       -0.66576761377291       -0.58784361427637
H           -0.58125455443183        1.16797681886550        0.74646121828205
H           -1.43237258464920       -0.15063653987920        1.54134983405387
H           -0.37437103621072       -1.81976624297479       -0.02464288004137
H            1.88343629201965       -1.42685492377432       -0.50370185697595
H            1.39743057760809        1.55062217407105        0.23915829346009
H            2.49215967991708        0.96910796784873       -1.02791115403713
H            2.85455795279234        0.63275136589521        0.65568790399435
