 xtb: 6.7.1 (edcfbbe)
          04062518003D

 24 24  0     0  0            999 V2000
   -2.0737   -1.3796   -0.0836 C   0  0  0  0  0  0  0  0  0  0  0  0
   -0.9885   -0.5232    0.5962 C   0  0  0  0  0  0  0  0  0  0  0  0
   -1.3737   -0.1454    1.5530 H   0  0  0  0  0  0  0  0  0  0  0  0
   -0.6273    0.6853   -0.2796 C   0  0  0  0  0  0  0  0  0  0  0  0
   -0.5148    0.3705   -1.3275 H   0  0  0  0  0  0  0  0  0  0  0  0
    0.7139    1.2584    0.1935 C   0  0  0  0  0  0  0  0  0  0  0  0
    0.6357    1.4695    1.2738 H   0  0  0  0  0  0  0  0  0  0  0  0
    1.8163    0.2155   -0.0416 C   0  0  0  0  0  0  0  0  0  0  0  0
    2.2038    0.3543   -1.0558 H   0  0  0  0  0  0  0  0  0  0  0  0
    1.2436   -1.2213    0.0521 C   0  0  0  0  0  0  0  0  0  0  0  0
    2.0092   -1.8564    0.5186 H   0  0  0  0  0  0  0  0  0  0  0  0
    0.1492   -1.3119    0.9342 O   0  0  0  0  0  0  0  0  0  0  0  0
    0.9240   -1.6624   -1.2290 O   0  0  0  0  0  0  0  0  0  0  0  0
    2.9160    0.3793    0.8105 O   0  0  0  0  0  0  0  0  0  0  0  0
    1.0455    2.4346   -0.4955 O   0  0  0  0  0  0  0  0  0  0  0  0
   -1.5964    1.6991   -0.1718 O   0  0  0  0  0  0  0  0  0  0  0  0
   -3.2837   -0.6697   -0.2072 O   0  0  0  0  0  0  0  0  0  0  0  0
   -2.2024   -2.3074    0.4828 H   0  0  0  0  0  0  0  0  0  0  0  0
   -1.7555   -1.6261   -1.0995 H   0  0  0  0  0  0  0  0  0  0  0  0
    0.8501   -2.6291   -1.2465 H   0  0  0  0  0  0  0  0  0  0  0  0
    2.6216    0.3936    1.7336 H   0  0  0  0  0  0  0  0  0  0  0  0
    0.2571    3.0007   -0.5146 H   0  0  0  0  0  0  0  0  0  0  0  0
   -2.4472    1.3392   -0.4731 H   0  0  0  0  0  0  0  0  0  0  0  0
   -3.7419   -0.6579    0.6449 H   0  0  0  0  0  0  0  0  0  0  0  0
  1  2  1  0  0  0  0
  2  3  1  0  0  0  0
  2  4  1  0  0  0  0
  4  5  1  0  0  0  0
  4  6  1  0  0  0  0
  6  7  1  0  0  0  0
  6  8  1  0  0  0  0
  8  9  1  0  0  0  0
  8 10  1  0  0  0  0
 10 11  1  0  0  0  0
  2 12  1  0  0  0  0
 10 12  1  0  0  0  0
 10 13  1  0  0  0  0
  8 14  1  0  0  0  0
  6 15  1  0  0  0  0
  4 16  1  0  0  0  0
  1 17  1  0  0  0  0
  1 18  1  0  0  0  0
  1 19  1  0  0  0  0
 13 20  1  0  0  0  0
 14 21  1  0  0  0  0
 15 22  1  0  0  0  0
 16 23  1  0  0  0  0
 17 24  1  0  0  0  0
M  END
