19
 xtb: 6.7.1 (edcfbbe)
C           -1.65178822249362       -0.97837659788872       -0.83354056453075
C           -0.90904928746398        0.01130115873383        0.00812336381481
O           -1.51579265246215        0.82057664470853        0.70536652436252
C            0.62564954467454        0.01855220143726        0.00587759686859
C            1.08041580640053       -0.27243868631694        1.44715914881192
C            1.08149785040151        1.42828951420133       -0.40737860280973
C            1.23969871408070       -1.01430838347191       -0.94181090854763
H           -1.37862444042151       -0.85345270028750       -1.88736852509546
H           -1.36065424812769       -1.99804558675749       -0.55809726310535
H           -2.72787014563607       -0.85040069881399       -0.70907359518025
H            0.74388440550758       -1.26177911133566        1.77574719315973
H            2.17413648663100       -0.25212953151578        1.49249933846750
H            0.69021639168457        0.47662250838604        2.14148049328850
H            2.17509496957536        1.47543271783868       -0.39027022257717
H            0.69056348199812        2.18517264811224        0.27762183645332
H            0.74514222427225        1.66808228947376       -1.42187412527035
H            2.33092729756611       -0.94802017110955       -0.88241273366712
H            0.95150458949740       -0.83312046875364       -1.98179045938719
H            0.95381858090180       -2.03586719032534       -0.67382470750204
