15
CONF1
C -0.4649143719 -1.3735636479 0.0006489875
C 0.2597340689 -0.2263592171 -0.0005234549
C -0.4098696920 1.0701309826 0.0002988709
O 0.1440578400 2.1523385946 0.0020145418
N -1.7886819268 0.9710379902 -0.0017563464
C -2.5419950715 -0.1754909207 -0.0001550731
O -3.7518368167 -0.1737027770 -0.0010438031
N -1.8082184584 -1.3475742228 0.0020687420
C 1.7528692918 -0.2186885341 -0.0004888799
F 2.2740084344 -1.4586861072 -0.0114860590
F 2.2749172192 0.4084033606 -1.0704915862
F 2.2747369225 0.3893560469 1.0809992551
H 0.0128112873 -2.3437238282 0.0009960047
H -2.3035735906 1.8483151947 -0.0027168698
H -2.3429181762 -2.2119298343 0.0030284090
