15
CONF1
C -0.4490330694 -1.3599722926 -0.0000641550
C 0.2718189879 -0.2102040797 -0.0009732193
C -0.4036264367 1.0689572791 0.0003945355
O 0.1440384661 2.1705446752 0.0023483189
N -1.7958733045 0.9725351045 -0.0006967500
C -2.5527528314 -0.1781612157 -0.0001703122
O -3.7766018269 -0.1811527586 -0.0003581616
N -1.8025267513 -1.3424290994 0.0005973128
C 1.7594114763 -0.2275518711 -0.0004261519
F 2.2498828252 -1.4878222350 -0.0074711279
F 2.2826582747 0.4053118806 -1.0827980696
F 2.2814764850 0.3927789955 1.0900242458
H 0.0054011230 -2.3437683908 0.0002981228
H -2.3147416905 1.8454203517 -0.0004552602
H -2.3184050112 -2.2146228454 0.0011431218
