26
CONF1
C -2.4324135004 1.1632138087 0.0611261506
C -1.4288334317 0.0378140691 -0.1916897220
C -2.1000084125 -1.3116432561 0.0624078263
C -0.1798031383 0.2197591818 0.6912846328
C 1.1854901297 0.0212497210 0.0050419857
C 1.4207401183 1.1058569731 -1.0497599502
C 2.2729120630 0.1432530579 1.0794584602
C 1.2930963832 -1.3598900452 -0.6440986384
H -3.3191776991 1.0294228134 -0.5549241597
H -2.7392648738 1.1696216146 1.1050835702
H -1.9939177378 2.1296932905 -0.1767009354
H -1.1406187599 0.0812159968 -1.2458353198
H -2.9533153482 -1.4425512539 -0.6001089720
H -1.4070984815 -2.1307396076 -0.1073853780
H -2.4550594815 -1.3679189172 1.0896619514
H -0.1870516840 1.2294593155 1.1079978910
H -0.2437253093 -0.4720700778 1.5340745556
H 2.4057430614 0.9888255973 -1.4961690215
H 1.3646490540 2.0939420630 -0.5983688975
H 0.6823052916 1.0516715094 -1.8452940961
H 3.2602421715 0.0357958853 0.6360204259
H 2.1528232171 -0.6285749889 1.8364677986
H 2.2218328174 1.1133871242 1.5687649638
H 1.1218392005 -2.1414852793 0.0927422853
H 2.2877121409 -1.4991879988 -1.0626731951
H 0.5705123054 -1.4742384789 -1.4474574627
26
CONF2
C -2.0957821664 0.6139123138 1.3499976432
C -1.3943940857 0.3366974204 0.0208144352
C -2.4070065941 -0.1649673234 -1.0081937035
C -0.2455459483 -0.6755257903 0.2015836206
C 1.1749751268 -0.1483532785 -0.0747855071
C 1.3153974847 0.2947239145 -1.5332083641
C 1.5196801414 1.0139950018 0.8591915927
C 2.1621279456 -1.2927125361 0.1845644021
H -2.8834160217 1.3533181710 1.2194861041
H -2.5449608006 -0.2978043001 1.7389441195
H -1.3895656719 0.9925488602 2.0848556218
H -0.9924553887 1.2849023937 -0.3466806656
H -1.9262495208 -0.3279352654 -1.9699270602
H -2.8504715301 -1.1025161193 -0.6789104127
H -3.2056889491 0.5614863549 -1.1437549117
H -0.2678418301 -1.0579125702 1.2242714181
H -0.4161694990 -1.5282344681 -0.4590116201
H 2.3342851615 0.6202574728 -1.7310844705
H 0.6471440724 1.1202707653 -1.7628658256
H 1.0835221026 -0.5298905885 -2.2037097632
H 0.8598765268 1.8618483186 0.6964658836
H 2.5419165065 1.3437824560 0.6868405712
H 1.4312598699 0.7045179595 1.8982552562
H 1.9463967923 -2.1399001811 -0.4626818839
H 2.0996505883 -1.6269782526 1.2178011222
H 3.1817934665 -0.9668459688 -0.0078658943
26
CONF4
C -1.7728582222 1.1311416648 0.9498971221
C -1.4809744340 0.1375753156 -0.1727486954
C -2.6805627577 -0.8014032925 -0.3287371621
C -0.2259747041 -0.7145674705 0.0707690358
C 1.1719948880 -0.0800871550 -0.0946512152
C 1.2698898446 0.7325351445 -1.3875700461
C 1.5587412021 0.8029080328 1.0947953924
C 2.1802886871 -1.2363565349 -0.1668478825
H -1.7524864828 0.6312497399 1.9157362990
H -1.0522420007 1.9423747088 0.9653551740
H -2.7601160111 1.5678392241 0.8123436176
H -1.3664308965 0.6895420137 -1.1099272618
H -3.5881597356 -0.2332512036 -0.5197668309
H -2.5297724116 -1.4898684324 -1.1571966452
H -2.8256114129 -1.3832950939 0.5791457679
H -0.2911220891 -1.1426338231 1.0745534916
H -0.2745067852 -1.5485050917 -0.6348612219
H 2.3009763887 1.0333525041 -1.5602444923
H 0.6628928679 1.6324079774 -1.3323153540
H 0.9393316592 0.1403897034 -2.2379627656
H 1.4159742283 0.2696949863 2.0316693402
H 0.9713387146 1.7145440826 1.1240397693
H 2.6069404057 1.0858787469 1.0201264989
H 3.1957636898 -0.8539123290 -0.2418570701
H 1.9884148034 -1.8628373574 -1.0351510747
H 2.1139891568 -1.8562679654 0.7245163894
26
CONF3
C -1.6686254083 -1.3907050737 0.6095682752
C -1.4238872540 0.1103201085 0.4723169444
C -2.7192398752 0.7884358462 0.0180308126
C -0.3146393608 0.4699262769 -0.5274367588
C 1.1493251799 0.0957548536 -0.2051176692
C 2.0489482365 1.0127611761 -1.0467730578
C 1.4802755924 0.3164334307 1.2722514475
C 1.4673422419 -1.3508417192 -0.5949835390
H -2.5805514954 -1.5675104913 1.1767281426
H -1.7811848229 -1.8502735153 -0.3698239976
H -0.8542224131 -1.8814513209 1.1343150005
H -1.1630910326 0.5137424483 1.4552630099
H -2.5885096012 1.8657634450 -0.0547924047
H -3.0206846794 0.4129436563 -0.9576883969
H -3.5222597690 0.5898446085 0.7241793371
H -0.5722999594 0.0357665448 -1.4969874600
H -0.3483112087 1.5564541151 -0.6454966793
H 1.9220370020 2.0527146855 -0.7538574106
H 1.8049011456 0.9213374262 -2.1029194509
H 3.0954355607 0.7473510739 -0.9139162600
H 1.2158041521 1.3266573807 1.5765615052
H 2.5467987064 0.1789782878 1.4377270665
H 0.9481633428 -0.3887061155 1.9048557644
H 1.2460171910 -1.5184110912 -1.6467872631
H 0.8954439853 -2.0610271439 -0.0079775245
H 2.5241429046 -1.5548622810 -0.4338386563
26
CONF6
C -2.1120834437 -0.8828802453 0.8871548818
C -1.5990393311 0.3954803616 0.2221452810
C -1.8740849478 0.3560535447 -1.2786656313
C -0.1506179193 0.7594102977 0.6089201745
C 1.0856364242 0.0322928226 0.0322228177
C 1.3996394001 0.4829989950 -1.3980887767
C 2.2752326954 0.4379555304 0.9171970188
C 0.9672377419 -1.4914043733 0.0686891614
H -1.8770678410 -0.8848994404 1.9490171230
H -3.1936436153 -0.9412380441 0.7797826957
H -1.6844609222 -1.7720511628 0.4365969377
H -2.2000862801 1.2182771095 0.6336116549
H -1.4199143139 -0.5167994244 -1.7395885241
H -2.9473516213 0.3020046345 -1.4521205297
H -1.4954951764 1.2516828546 -1.7642474466
H -0.0174354336 1.8203848405 0.3777790689
H -0.1000030813 0.6680456935 1.6976914242
H 0.6466023621 0.1456178136 -2.1013736208
H 2.3578667207 0.0727728698 -1.7114923747
H 1.4618506127 1.5677049406 -1.4529142138
H 3.1996236487 0.0143602531 0.5308327930
H 2.1379826054 0.0812404150 1.9356969773
H 2.3816339940 1.5202358305 0.9444685363
H 0.2304633058 -1.8468355151 -0.6455315444
H 0.6909082413 -1.8325268973 1.0629372178
H 1.9248076114 -1.9393848252 -0.1910920531
26
CONF7
C -2.0096387871 1.2207474957 -0.3763895218
C -1.6496512181 -0.2286014730 -0.0542956531
C -1.8487861440 -0.5002760737 1.4360935281
C -0.2916969882 -0.6957248056 -0.6168894195
C 1.0692083009 -0.0970700887 -0.1971847419
C 1.2095496604 1.3804182401 -0.5702496556
C 1.3652450139 -0.2735845616 1.2935255450
C 2.1322407820 -0.8819110921 -0.9838595922
H -1.4757341640 1.9144195907 0.2660263720
H -1.7810064912 1.4565655047 -1.4124021508
H -3.0751069810 1.3766021283 -0.2177971436
H -2.3771127122 -0.8578095760 -0.5862193948
H -1.5112656173 -1.5000179039 1.6968757951
H -1.3123362736 0.2189872191 2.0470054004
H -2.9057831955 -0.4216290794 1.6835042329
H -0.2342948689 -1.7699123036 -0.4158234486
H -0.3577166646 -0.5832530643 -1.7034606964
H 2.2464006892 1.6910409465 -0.4564403168
H 0.6029974133 2.0120602605 0.0698522439
H 0.9157843234 1.5476294847 -1.6034818299
H 2.4126593734 -0.0511479743 1.4890388223
H 1.1697621745 -1.2956048128 1.6083446703
H 0.7661217292 0.3984266319 1.8993696720
H 1.9757797819 -0.7752798986 -2.0550918268
H 2.0925562114 -1.9403854599 -0.7360286991
H 3.1286915258 -0.5149824631 -0.7480351935
