 xtb: 6.7.1 (edcfbbe)
          04062511563D

 31 31  0     0  0            999 V2000
    3.7298    0.3075    0.1595 C   0  0  0  0  0  0  0  0  0  0  0  0
    2.2920    0.1773   -0.3358 C   0  0  0  0  0  0  0  0  0  0  0  0
    2.3087   -0.0664   -1.4046 H   0  0  0  0  0  0  0  0  0  0  0  0
    1.5192    1.4794   -0.1463 C   0  0  0  0  0  0  0  0  0  0  0  0
    0.0781    1.3380   -0.6274 C   0  0  0  0  0  0  0  0  0  0  0  0
   -0.6687    0.2304    0.1238 C   0  0  0  0  0  0  0  0  0  0  0  0
   -0.6579    0.4671    1.1930 H   0  0  0  0  0  0  0  0  0  0  0  0
    0.1105   -1.0830   -0.0731 C   0  0  0  0  0  0  0  0  0  0  0  0
    0.1100   -1.3181   -1.1523 H   0  0  0  0  0  0  0  0  0  0  0  0
    1.5595   -0.9386    0.4036 C   0  0  0  0  0  0  0  0  0  0  0  0
   -0.5323   -2.1348    0.6268 O   0  0  0  0  0  0  0  0  0  0  0  0
   -2.1442    0.0730   -0.3186 C   0  0  0  0  0  0  0  0  0  0  0  0
   -2.9862   -0.4978    0.8241 C   0  0  0  0  0  0  0  0  0  0  0  0
   -2.7938    1.3753   -0.7895 C   0  0  0  0  0  0  0  0  0  0  0  0
    4.2459    1.0993   -0.3778 H   0  0  0  0  0  0  0  0  0  0  0  0
    3.7442    0.5462    1.2206 H   0  0  0  0  0  0  0  0  0  0  0  0
    4.2731   -0.6222    0.0087 H   0  0  0  0  0  0  0  0  0  0  0  0
    1.5235    1.7480    0.9124 H   0  0  0  0  0  0  0  0  0  0  0  0
    2.0085    2.2844   -0.6982 H   0  0  0  0  0  0  0  0  0  0  0  0
   -0.4307    2.2888   -0.4779 H   0  0  0  0  0  0  0  0  0  0  0  0
    0.0743    1.1121   -1.6965 H   0  0  0  0  0  0  0  0  0  0  0  0
    1.5502   -0.7276    1.4756 H   0  0  0  0  0  0  0  0  0  0  0  0
    2.0821   -1.8870    0.2525 H   0  0  0  0  0  0  0  0  0  0  0  0
   -0.0169   -2.9451    0.5164 H   0  0  0  0  0  0  0  0  0  0  0  0
   -2.1698   -0.6371   -1.1532 H   0  0  0  0  0  0  0  0  0  0  0  0
   -2.5462   -1.4148    1.2015 H   0  0  0  0  0  0  0  0  0  0  0  0
   -3.9958   -0.7112    0.4800 H   0  0  0  0  0  0  0  0  0  0  0  0
   -3.0455    0.2215    1.6386 H   0  0  0  0  0  0  0  0  0  0  0  0
   -3.8437    1.1909   -1.0065 H   0  0  0  0  0  0  0  0  0  0  0  0
   -2.3274    1.7564   -1.6930 H   0  0  0  0  0  0  0  0  0  0  0  0
   -2.7387    2.1346   -0.0129 H   0  0  0  0  0  0  0  0  0  0  0  0
  1  2  1  0  0  0  0
  2  3  1  0  0  0  0
  2  4  1  0  0  0  0
  4  5  1  0  0  0  0
  5  6  1  0  0  0  0
  6  7  1  0  0  0  0
  6  8  1  0  0  0  0
  8  9  1  0  0  0  0
  2 10  1  0  0  0  0
  8 10  1  0  0  0  0
  8 11  1  0  0  0  0
  6 12  1  0  0  0  0
 12 13  1  0  0  0  0
 12 14  1  0  0  0  0
  1 15  1  0  0  0  0
  1 16  1  0  0  0  0
  1 17  1  0  0  0  0
  4 18  1  0  0  0  0
  4 19  1  0  0  0  0
  5 20  1  0  0  0  0
  5 21  1  0  0  0  0
 10 22  1  0  0  0  0
 10 23  1  0  0  0  0
 11 24  1  0  0  0  0
 12 25  1  0  0  0  0
 13 26  1  0  0  0  0
 13 27  1  0  0  0  0
 13 28  1  0  0  0  0
 14 29  1  0  0  0  0
 14 30  1  0  0  0  0
 14 31  1  0  0  0  0
M  END
