 xtb: 6.7.1 (edcfbbe)
          04042519363D

 14 13  0     0  0            999 V2000
    2.1951    0.4805    0.1373 C   0  0  0  0  0  0  0  0  0  0  0  0
    1.2339   -0.5978   -0.3488 C   0  0  0  0  0  0  0  0  0  0  0  0
   -0.1110   -0.5573    0.3628 C   0  0  0  0  0  0  0  0  0  0  0  0
    0.0293   -0.5082    1.4448 H   0  0  0  0  0  0  0  0  0  0  0  0
   -1.0130   -1.7173   -0.0137 C   0  0  0  0  0  0  0  0  0  0  0  0
   -0.9624    0.9910   -0.0555 Cl  0  0  0  0  0  0  0  0  0  0  0  0
    2.3889    0.3678    1.2014 H   0  0  0  0  0  0  0  0  0  0  0  0
    1.7764    1.4696   -0.0326 H   0  0  0  0  0  0  0  0  0  0  0  0
    3.1388    0.4102   -0.3963 H   0  0  0  0  0  0  0  0  0  0  0  0
    1.6711   -1.5811   -0.1657 H   0  0  0  0  0  0  0  0  0  0  0  0
    1.0737   -0.4930   -1.4232 H   0  0  0  0  0  0  0  0  0  0  0  0
   -0.5486   -2.6486    0.3002 H   0  0  0  0  0  0  0  0  0  0  0  0
   -1.9793   -1.6264    0.4751 H   0  0  0  0  0  0  0  0  0  0  0  0
   -1.1672   -1.7450   -1.0894 H   0  0  0  0  0  0  0  0  0  0  0  0
  1  2  1  0  0  0  0
  2  3  1  0  0  0  0
  3  4  1  0  0  0  0
  3  5  1  0  0  0  0
  3  6  1  0  0  0  0
  1  7  1  0  0  0  0
  1  8  1  0  0  0  0
  1  9  1  0  0  0  0
  2 10  1  0  0  0  0
  2 11  1  0  0  0  0
  5 12  1  0  0  0  0
  5 13  1  0  0  0  0
  5 14  1  0  0  0  0
M  END
