 xtb: 6.7.1 (edcfbbe)
          04062518003D

 24 24  0     0  0            999 V2000
   -2.1021   -1.3525   -0.0824 C   0  0  0  0  0  0  0  0  0  0  0  0
   -1.0056   -0.5079    0.5919 C   0  0  0  0  0  0  0  0  0  0  0  0
   -1.4034   -0.1372    1.5454 H   0  0  0  0  0  0  0  0  0  0  0  0
   -0.6166    0.6900   -0.2919 C   0  0  0  0  0  0  0  0  0  0  0  0
   -0.5022    0.3531   -1.3308 H   0  0  0  0  0  0  0  0  0  0  0  0
    0.7297    1.2388    0.2027 C   0  0  0  0  0  0  0  0  0  0  0  0
    0.6964    1.3953    1.2874 H   0  0  0  0  0  0  0  0  0  0  0  0
    1.8133    0.1852   -0.0818 C   0  0  0  0  0  0  0  0  0  0  0  0
    2.1341    0.2828   -1.1283 H   0  0  0  0  0  0  0  0  0  0  0  0
    1.2277   -1.2433    0.0739 C   0  0  0  0  0  0  0  0  0  0  0  0
    1.9731   -1.8725    0.5814 H   0  0  0  0  0  0  0  0  0  0  0  0
    0.1241   -1.3042    0.9397 O   0  0  0  0  0  0  0  0  0  0  0  0
    0.9354   -1.7233   -1.2026 O   0  0  0  0  0  0  0  0  0  0  0  0
    2.8798    0.4145    0.8005 O   0  0  0  0  0  0  0  0  0  0  0  0
    1.0283    2.4945   -0.3399 O   0  0  0  0  0  0  0  0  0  0  0  0
   -1.6327    1.6594   -0.3177 O   0  0  0  0  0  0  0  0  0  0  0  0
   -3.3421   -0.6922   -0.0847 O   0  0  0  0  0  0  0  0  0  0  0  0
   -2.2439   -2.2750    0.4855 H   0  0  0  0  0  0  0  0  0  0  0  0
   -1.7937   -1.6043   -1.1064 H   0  0  0  0  0  0  0  0  0  0  0  0
    0.7433   -2.6729   -1.1695 H   0  0  0  0  0  0  0  0  0  0  0  0
    3.6794   -0.0351    0.4919 H   0  0  0  0  0  0  0  0  0  0  0  0
    1.0445    2.4442   -1.3072 H   0  0  0  0  0  0  0  0  0  0  0  0
   -1.5477    2.2487    0.4457 H   0  0  0  0  0  0  0  0  0  0  0  0
   -3.2200    0.1956   -0.4605 H   0  0  0  0  0  0  0  0  0  0  0  0
  1  2  1  0  0  0  0
  2  3  1  0  0  0  0
  2  4  1  0  0  0  0
  4  5  1  0  0  0  0
  4  6  1  0  0  0  0
  6  7  1  0  0  0  0
  6  8  1  0  0  0  0
  8  9  1  0  0  0  0
  8 10  1  0  0  0  0
 10 11  1  0  0  0  0
  2 12  1  0  0  0  0
 10 12  1  0  0  0  0
 10 13  1  0  0  0  0
  8 14  1  0  0  0  0
  6 15  1  0  0  0  0
  4 16  1  0  0  0  0
  1 17  1  0  0  0  0
  1 18  1  0  0  0  0
  1 19  1  0  0  0  0
 13 20  1  0  0  0  0
 14 21  1  0  0  0  0
 15 22  1  0  0  0  0
 16 23  1  0  0  0  0
 17 24  1  0  0  0  0
M  END
