 xtb: 6.7.1 (edcfbbe)
          04062520053D

 27 27  0     0  0            999 V2000
   -3.4308    0.5797    0.0678 C   0  0  0  0  0  0  0  0  0  0  0  0
   -1.9368    0.4869    0.1115 C   0  0  0  0  0  0  0  0  0  0  0  0
   -1.1352    1.5076   -0.1588 C   0  0  0  0  0  0  0  0  0  0  0  0
    0.3598    1.4444   -0.1509 C   0  0  0  0  0  0  0  0  0  0  0  0
    0.8560   -0.0064   -0.1789 C   0  0  0  0  0  0  0  0  0  0  0  0
    0.5910   -0.4321   -1.1535 H   0  0  0  0  0  0  0  0  0  0  0  0
    0.0811   -0.7881    0.8817 C   0  0  0  0  0  0  0  0  0  0  0  0
   -1.3883   -0.8789    0.4614 C   0  0  0  0  0  0  0  0  0  0  0  0
   -1.9805   -1.2894    1.2974 H   0  0  0  0  0  0  0  0  0  0  0  0
   -1.5684   -1.7130   -0.6774 O   0  0  0  0  0  0  0  0  0  0  0  0
    2.3559   -0.0583   -0.0200 C   0  0  0  0  0  0  0  0  0  0  0  0
    2.9605   -0.0980    1.1569 C   0  0  0  0  0  0  0  0  0  0  0  0
    3.1257   -0.0313   -1.3059 C   0  0  0  0  0  0  0  0  0  0  0  0
   -3.8201   -0.1833   -0.6048 H   0  0  0  0  0  0  0  0  0  0  0  0
   -3.7504    1.5582   -0.2786 H   0  0  0  0  0  0  0  0  0  0  0  0
   -3.8495    0.3997    1.0575 H   0  0  0  0  0  0  0  0  0  0  0  0
   -1.5625    2.4730   -0.3960 H   0  0  0  0  0  0  0  0  0  0  0  0
    0.7491    1.9952   -1.0101 H   0  0  0  0  0  0  0  0  0  0  0  0
    0.7382    1.9404    0.7496 H   0  0  0  0  0  0  0  0  0  0  0  0
    0.5006   -1.7895    0.9979 H   0  0  0  0  0  0  0  0  0  0  0  0
    0.1315   -0.2782    1.8440 H   0  0  0  0  0  0  0  0  0  0  0  0
   -1.2610   -2.6043   -0.4652 H   0  0  0  0  0  0  0  0  0  0  0  0
    4.0345   -0.1144    1.2376 H   0  0  0  0  0  0  0  0  0  0  0  0
    2.4194   -0.1166    2.0864 H   0  0  0  0  0  0  0  0  0  0  0  0
    2.9149   -0.9294   -1.8854 H   0  0  0  0  0  0  0  0  0  0  0  0
    2.8260    0.8263   -1.9061 H   0  0  0  0  0  0  0  0  0  0  0  0
    4.1951    0.0237   -1.1223 H   0  0  0  0  0  0  0  0  0  0  0  0
  1  2  1  0  0  0  0
  2  3  2  0  0  0  0
  3  4  1  0  0  0  0
  4  5  1  0  0  0  0
  5  6  1  0  0  0  0
  5  7  1  0  0  0  0
  2  8  1  0  0  0  0
  7  8  1  0  0  0  0
  8  9  1  0  0  0  0
  8 10  1  0  0  0  0
  5 11  1  0  0  0  0
 11 12  2  0  0  0  0
 11 13  1  0  0  0  0
  1 14  1  0  0  0  0
  1 15  1  0  0  0  0
  1 16  1  0  0  0  0
  3 17  1  0  0  0  0
  4 18  1  0  0  0  0
  4 19  1  0  0  0  0
  7 20  1  0  0  0  0
  7 21  1  0  0  0  0
 10 22  1  0  0  0  0
 12 23  1  0  0  0  0
 12 24  1  0  0  0  0
 13 25  1  0  0  0  0
 13 26  1  0  0  0  0
 13 27  1  0  0  0  0
M  END
