 xtb: 6.7.1 (edcfbbe)
          04032521363D

 24 26  0     0  0            999 V2000
    2.6103   -0.0009    2.0919 C   0  0  0  0  0  0  0  0  0  0  0  0
    1.9374    1.2309    1.4823 C   0  0  0  0  0  0  0  0  0  0  0  0
    1.9855    2.0888    2.1505 H   0  0  0  0  0  0  0  0  0  0  0  0
    0.4791    0.7777    1.2942 C   0  0  0  0  0  0  0  0  0  0  0  0
   -0.0563    1.1584    2.1663 H   0  0  0  0  0  0  0  0  0  0  0  0
    0.4786   -0.7780    1.2940 C   0  0  0  0  0  0  0  0  0  0  0  0
   -0.0570   -1.1586    2.1660 H   0  0  0  0  0  0  0  0  0  0  0  0
    1.9366   -1.2321    1.4818 C   0  0  0  0  0  0  0  0  0  0  0  0
    1.9842   -2.0904    2.1498 H   0  0  0  0  0  0  0  0  0  0  0  0
    2.7997   -1.8001    0.0100 Cl  0  0  0  0  0  0  0  0  0  0  0  0
   -0.4066   -1.1203    0.0665 C   0  0  0  0  0  0  0  0  0  0  0  0
   -1.7929   -0.6690    0.5376 C   0  0  0  0  0  0  0  0  0  0  0  0
   -1.7925    0.6703    0.5377 C   0  0  0  0  0  0  0  0  0  0  0  0
   -0.4059    1.1208    0.0668 C   0  0  0  0  0  0  0  0  0  0  0  0
   -0.1657    0.0003   -0.9734 C   0  0  0  0  0  0  0  0  0  0  0  0
    1.3204   -0.0000   -1.8914 Cl  0  0  0  0  0  0  0  0  0  0  0  0
   -1.4601    0.0008   -2.2273 Cl  0  0  0  0  0  0  0  0  0  0  0  0
   -0.3217    2.7657   -0.5318 Cl  0  0  0  0  0  0  0  0  0  0  0  0
   -2.9928    1.7435    1.0451 Cl  0  0  0  0  0  0  0  0  0  0  0  0
   -2.9940   -1.7416    1.0448 Cl  0  0  0  0  0  0  0  0  0  0  0  0
   -0.3234   -2.7652   -0.5323 Cl  0  0  0  0  0  0  0  0  0  0  0  0
    2.8010    1.7988    0.0107 Cl  0  0  0  0  0  0  0  0  0  0  0  0
    2.4092   -0.0011    3.1627 H   0  0  0  0  0  0  0  0  0  0  0  0
    3.6855   -0.0013    1.9370 H   0  0  0  0  0  0  0  0  0  0  0  0
  1  2  1  0  0  0  0
  2  3  1  0  0  0  0
  2  4  1  0  0  0  0
  4  5  1  0  0  0  0
  4  6  1  0  0  0  0
  6  7  1  0  0  0  0
  1  8  1  0  0  0  0
  6  8  1  0  0  0  0
  8  9  1  0  0  0  0
  8 10  1  0  0  0  0
  6 11  1  0  0  0  0
 11 12  1  0  0  0  0
 12 13  2  0  0  0  0
  4 14  1  0  0  0  0
 13 14  1  0  0  0  0
 11 15  1  0  0  0  0
 14 15  1  0  0  0  0
 15 16  1  0  0  0  0
 15 17  1  0  0  0  0
 14 18  1  0  0  0  0
 13 19  1  0  0  0  0
 12 20  1  0  0  0  0
 11 21  1  0  0  0  0
  2 22  1  0  0  0  0
  1 23  1  0  0  0  0
  1 24  1  0  0  0  0
M  END
