 xtb: 6.7.1 (edcfbbe)
          04052509103D

 21 21  0     0  0            999 V2000
   -2.6643   -1.4360    0.0828 C   0  0  0  0  0  0  0  0  0  0  0  0
   -1.9540   -0.0888    0.0323 C   0  0  0  0  0  0  0  0  0  0  0  0
   -0.4481   -0.1388    0.0382 C   0  0  0  0  0  0  0  0  0  0  0  0
    0.2537   -1.3349    0.0960 C   0  0  0  0  0  0  0  0  0  0  0  0
    1.6382   -1.3570    0.1006 C   0  0  0  0  0  0  0  0  0  0  0  0
    2.3461   -0.1715    0.0469 C   0  0  0  0  0  0  0  0  0  0  0  0
    1.6581    1.0276   -0.0108 C   0  0  0  0  0  0  0  0  0  0  0  0
    0.2710    1.0630   -0.0158 C   0  0  0  0  0  0  0  0  0  0  0  0
   -0.4375    2.3822   -0.0791 C   0  0  0  0  0  0  0  0  0  0  0  0
   -2.4016   -2.0476   -0.7772 H   0  0  0  0  0  0  0  0  0  0  0  0
   -3.7405   -1.2788    0.0707 H   0  0  0  0  0  0  0  0  0  0  0  0
   -2.4113   -1.9767    0.9917 H   0  0  0  0  0  0  0  0  0  0  0  0
   -2.2800    0.5119    0.8869 H   0  0  0  0  0  0  0  0  0  0  0  0
   -2.2754    0.4433   -0.8683 H   0  0  0  0  0  0  0  0  0  0  0  0
   -0.2778   -2.2720    0.1385 H   0  0  0  0  0  0  0  0  0  0  0  0
    2.1603   -2.3016    0.1462 H   0  0  0  0  0  0  0  0  0  0  0  0
    3.4262   -0.1779    0.0499 H   0  0  0  0  0  0  0  0  0  0  0  0
    2.2099    1.9563   -0.0528 H   0  0  0  0  0  0  0  0  0  0  0  0
   -1.0783    2.5171    0.7912 H   0  0  0  0  0  0  0  0  0  0  0  0
    0.2788    3.1988   -0.1115 H   0  0  0  0  0  0  0  0  0  0  0  0
   -1.0675    2.4383   -0.9659 H   0  0  0  0  0  0  0  0  0  0  0  0
  1  2  1  0  0  0  0
  2  3  1  0  0  0  0
  3  4  4  0  0  0  0
  4  5  4  0  0  0  0
  5  6  4  0  0  0  0
  6  7  4  0  0  0  0
  3  8  4  0  0  0  0
  7  8  4  0  0  0  0
  8  9  1  0  0  0  0
  1 10  1  0  0  0  0
  1 11  1  0  0  0  0
  1 12  1  0  0  0  0
  2 13  1  0  0  0  0
  2 14  1  0  0  0  0
  4 15  1  0  0  0  0
  5 16  1  0  0  0  0
  6 17  1  0  0  0  0
  7 18  1  0  0  0  0
  9 19  1  0  0  0  0
  9 20  1  0  0  0  0
  9 21  1  0  0  0  0
M  END
