 xtb: 6.7.1 (edcfbbe)
          04032521383D

 24 25  0     0  0            999 V2000
    3.2687    1.0722   -0.0060 C   0  0  0  0  0  0  0  0  0  0  0  0
    2.2771    0.0332    0.0011 N   0  0  0  0  0  0  0  0  0  0  0  0
    2.4740   -1.2926    0.0044 C   0  0  0  0  0  0  0  0  0  0  0  0
    1.3568   -1.9972    0.0038 N   0  0  0  0  0  0  0  0  0  0  0  0
    0.3753   -1.0718   -0.0003 C   0  0  0  0  0  0  0  0  0  0  0  0
    0.9135    0.2117   -0.0019 C   0  0  0  0  0  0  0  0  0  0  0  0
    0.0972    1.3794   -0.0001 C   0  0  0  0  0  0  0  0  0  0  0  0
    0.4810    2.5445    0.0018 O   0  0  0  0  0  0  0  0  0  0  0  0
   -1.2590    1.0549    0.0008 N   0  0  0  0  0  0  0  0  0  0  0  0
   -1.8175   -0.2148   -0.0008 C   0  0  0  0  0  0  0  0  0  0  0  0
   -3.0325   -0.3545   -0.0004 O   0  0  0  0  0  0  0  0  0  0  0  0
   -0.9676   -1.2879    0.0006 N   0  0  0  0  0  0  0  0  0  0  0  0
   -1.4867   -2.6422   -0.0043 C   0  0  0  0  0  0  0  0  0  0  0  0
   -2.2180    2.1508    0.0022 C   0  0  0  0  0  0  0  0  0  0  0  0
    3.1810    1.6624   -0.9184 H   0  0  0  0  0  0  0  0  0  0  0  0
    3.1094    1.7393    0.8409 H   0  0  0  0  0  0  0  0  0  0  0  0
    4.2559    0.6220    0.0525 H   0  0  0  0  0  0  0  0  0  0  0  0
    3.4464   -1.7417    0.0074 H   0  0  0  0  0  0  0  0  0  0  0  0
   -1.2371   -3.1264   -0.9467 H   0  0  0  0  0  0  0  0  0  0  0  0
   -2.5660   -2.5866    0.1151 H   0  0  0  0  0  0  0  0  0  0  0  0
   -1.0358   -3.1987    0.8140 H   0  0  0  0  0  0  0  0  0  0  0  0
   -2.8581    2.0754    0.8797 H   0  0  0  0  0  0  0  0  0  0  0  0
   -2.8404    2.0944   -0.8895 H   0  0  0  0  0  0  0  0  0  0  0  0
   -1.6536    3.0796    0.0172 H   0  0  0  0  0  0  0  0  0  0  0  0
  1  2  1  0  0  0  0
  2  3  4  0  0  0  0
  3  4  4  0  0  0  0
  4  5  4  0  0  0  0
  2  6  1  0  0  0  0
  5  6  4  0  0  0  0
  6  7  1  0  0  0  0
  7  8  2  0  0  0  0
  7  9  1  0  0  0  0
  9 10  1  0  0  0  0
 10 11  2  0  0  0  0
  5 12  1  0  0  0  0
 10 12  1  0  0  0  0
 12 13  1  0  0  0  0
  9 14  1  0  0  0  0
  1 15  1  0  0  0  0
  1 16  1  0  0  0  0
  1 17  1  0  0  0  0
  3 18  1  0  0  0  0
 13 19  1  0  0  0  0
 13 20  1  0  0  0  0
 13 21  1  0  0  0  0
 14 22  1  0  0  0  0
 14 23  1  0  0  0  0
 14 24  1  0  0  0  0
M  END
