 xtb: 6.7.1 (edcfbbe)
          04062518003D

 24 24  0     0  0            999 V2000
   -2.4967   -0.4329   -0.2826 C   0  0  0  0  0  0  0  0  0  0  0  0
   -1.0790   -0.1873    0.2444 C   0  0  0  0  0  0  0  0  0  0  0  0
   -1.0615   -0.3910    1.3265 H   0  0  0  0  0  0  0  0  0  0  0  0
   -0.6277    1.2714    0.0239 C   0  0  0  0  0  0  0  0  0  0  0  0
   -1.2619    1.7392   -0.7401 H   0  0  0  0  0  0  0  0  0  0  0  0
    0.8320    1.3035   -0.4972 C   0  0  0  0  0  0  0  0  0  0  0  0
    1.2405    2.3090   -0.3448 H   0  0  0  0  0  0  0  0  0  0  0  0
    1.6786    0.3071    0.3114 C   0  0  0  0  0  0  0  0  0  0  0  0
    2.6946    0.2677   -0.0970 H   0  0  0  0  0  0  0  0  0  0  0  0
    1.0849   -1.1182    0.1608 C   0  0  0  0  0  0  0  0  0  0  0  0
    1.0219   -1.5685    1.1726 H   0  0  0  0  0  0  0  0  0  0  0  0
   -0.2127   -1.0982   -0.4109 O   0  0  0  0  0  0  0  0  0  0  0  0
    1.9034   -1.8456   -0.6769 O   0  0  0  0  0  0  0  0  0  0  0  0
    1.7969    0.6910    1.6551 O   0  0  0  0  0  0  0  0  0  0  0  0
    0.8962    1.0737   -1.8781 O   0  0  0  0  0  0  0  0  0  0  0  0
   -0.7472    1.9334    1.2633 O   0  0  0  0  0  0  0  0  0  0  0  0
   -2.9907   -1.6964    0.0743 O   0  0  0  0  0  0  0  0  0  0  0  0
   -2.4966   -0.3068   -1.3722 H   0  0  0  0  0  0  0  0  0  0  0  0
   -3.1708    0.2967    0.1690 H   0  0  0  0  0  0  0  0  0  0  0  0
    1.5507   -2.7403   -0.8053 H   0  0  0  0  0  0  0  0  0  0  0  0
    0.9483    1.0591    1.9621 H   0  0  0  0  0  0  0  0  0  0  0  0
    0.6864    0.1439   -2.0562 H   0  0  0  0  0  0  0  0  0  0  0  0
   -0.7484    2.8927    1.1341 H   0  0  0  0  0  0  0  0  0  0  0  0
   -2.4138   -2.3736   -0.3069 H   0  0  0  0  0  0  0  0  0  0  0  0
  1  2  1  0  0  0  0
  2  3  1  0  0  0  0
  2  4  1  0  0  0  0
  4  5  1  0  0  0  0
  4  6  1  0  0  0  0
  6  7  1  0  0  0  0
  6  8  1  0  0  0  0
  8  9  1  0  0  0  0
  8 10  1  0  0  0  0
 10 11  1  0  0  0  0
  2 12  1  0  0  0  0
 10 12  1  0  0  0  0
 10 13  1  0  0  0  0
  8 14  1  0  0  0  0
  6 15  1  0  0  0  0
  4 16  1  0  0  0  0
  1 17  1  0  0  0  0
  1 18  1  0  0  0  0
  1 19  1  0  0  0  0
 13 20  1  0  0  0  0
 14 21  1  0  0  0  0
 15 22  1  0  0  0  0
 16 23  1  0  0  0  0
 17 24  1  0  0  0  0
M  END
