 xtb: 6.7.1 (edcfbbe)
          04062505073D

 29 29  0     0  0            999 V2000
   -3.6960   -0.0414    0.1199 C   0  0  0  0  0  0  0  0  0  0  0  0
   -2.2267   -0.0212   -0.2902 C   0  0  0  0  0  0  0  0  0  0  0  0
   -2.1493    0.3863   -1.3047 H   0  0  0  0  0  0  0  0  0  0  0  0
   -1.6233   -1.4239   -0.2782 C   0  0  0  0  0  0  0  0  0  0  0  0
   -0.1501   -1.3794   -0.6648 C   0  0  0  0  0  0  0  0  0  0  0  0
    0.6520   -0.5033    0.3149 C   0  0  0  0  0  0  0  0  0  0  0  0
    0.4711   -0.8951    1.3229 H   0  0  0  0  0  0  0  0  0  0  0  0
    0.0396    0.8782    0.2815 C   0  0  0  0  0  0  0  0  0  0  0  0
    0.6252    1.8960   -0.0309 O   0  0  0  0  0  0  0  0  0  0  0  0
   -1.4215    0.8876    0.6521 C   0  0  0  0  0  0  0  0  0  0  0  0
    2.1706   -0.5699    0.0663 C   0  0  0  0  0  0  0  0  0  0  0  0
    2.5839   -0.0523   -1.3104 C   0  0  0  0  0  0  0  0  0  0  0  0
    2.9222    0.1844    1.1633 C   0  0  0  0  0  0  0  0  0  0  0  0
   -4.1112    0.9630    0.1057 H   0  0  0  0  0  0  0  0  0  0  0  0
   -4.2698   -0.6602   -0.5652 H   0  0  0  0  0  0  0  0  0  0  0  0
   -3.8047   -0.4455    1.1236 H   0  0  0  0  0  0  0  0  0  0  0  0
   -1.7316   -1.8580    0.7178 H   0  0  0  0  0  0  0  0  0  0  0  0
   -2.1644   -2.0584   -0.9820 H   0  0  0  0  0  0  0  0  0  0  0  0
    0.2718   -2.3855   -0.6619 H   0  0  0  0  0  0  0  0  0  0  0  0
   -0.0552   -0.9752   -1.6740 H   0  0  0  0  0  0  0  0  0  0  0  0
   -1.5282    0.5218    1.6748 H   0  0  0  0  0  0  0  0  0  0  0  0
   -1.7929    1.9128    0.6047 H   0  0  0  0  0  0  0  0  0  0  0  0
    2.4527   -1.6286    0.1285 H   0  0  0  0  0  0  0  0  0  0  0  0
    3.6657   -0.0987   -1.4100 H   0  0  0  0  0  0  0  0  0  0  0  0
    2.2730    0.9813   -1.4360 H   0  0  0  0  0  0  0  0  0  0  0  0
    2.1456   -0.6511   -2.1043 H   0  0  0  0  0  0  0  0  0  0  0  0
    2.6543   -0.1947    2.1473 H   0  0  0  0  0  0  0  0  0  0  0  0
    2.6838    1.2445    1.1229 H   0  0  0  0  0  0  0  0  0  0  0  0
    3.9952    0.0699    1.0317 H   0  0  0  0  0  0  0  0  0  0  0  0
  1  2  1  0  0  0  0
  2  3  1  0  0  0  0
  2  4  1  0  0  0  0
  4  5  1  0  0  0  0
  5  6  1  0  0  0  0
  6  7  1  0  0  0  0
  6  8  1  0  0  0  0
  8  9  2  0  0  0  0
  2 10  1  0  0  0  0
  8 10  1  0  0  0  0
  6 11  1  0  0  0  0
 11 12  1  0  0  0  0
 11 13  1  0  0  0  0
  1 14  1  0  0  0  0
  1 15  1  0  0  0  0
  1 16  1  0  0  0  0
  4 17  1  0  0  0  0
  4 18  1  0  0  0  0
  5 19  1  0  0  0  0
  5 20  1  0  0  0  0
 10 21  1  0  0  0  0
 10 22  1  0  0  0  0
 11 23  1  0  0  0  0
 12 24  1  0  0  0  0
 12 25  1  0  0  0  0
 12 26  1  0  0  0  0
 13 27  1  0  0  0  0
 13 28  1  0  0  0  0
 13 29  1  0  0  0  0
M  END
