16
 xtb: 6.7.1 (edcfbbe)
C            1.32009878371094        1.07261609530134        0.87638746791994
C            0.70120366877722        0.33381301378342       -0.32341738782251
C            1.47567964935077       -0.94680155002504       -0.63779047174870
C           -0.76243246486078        0.08850401968618       -0.01737637470437
O           -1.62510074970746        0.85360685424095       -0.44413011764261
C           -1.12601266386170       -1.09154719718293        0.83290702605709
H            2.36022406372965        1.32577494033602        0.64888779687448
H            0.78106250697366        1.99917859723957        1.09680348855223
H            1.31152231316933        0.44185279100594        1.77146815948310
H            0.72521248604320        1.00283522463712       -1.19101068034666
H            1.53502687598357       -1.60262310591028        0.23675087964336
H            2.49788200289971       -0.69040697447077       -0.93349640856388
H            1.01451278295304       -1.50474589730216       -1.45906466399144
H           -2.14710357358150       -0.99448209547685        1.20554321679593
H           -0.42283945551164       -1.21901258235507        1.66142716598565
H           -1.05631112214753       -1.99721116705317        0.21659495548675
