19
 xtb: 6.7.1 (edcfbbe)
C           -2.75187046935848       -0.28517228617441       -0.00006098524596
C           -2.37601009654115        1.07391096394840        0.00000096775413
C           -1.04711132776343        1.42860843620331        0.00002947801316
C           -0.03016589702339        0.44250368238964       -0.00000399913467
C           -0.41066263633403       -0.94166140848866       -0.00003338600180
C           -1.79022962977225       -1.26638229058479       -0.00007195848669
C            0.58321023870260       -1.94937158615727       -0.00001300784567
C            1.91376556354201       -1.60392820315142        0.00002776740299
C            2.30897528024039       -0.25418435571795        0.00002407722060
C            1.36275918962185        0.74814349352733       -0.00000346926917
O            1.83236668814373        2.04024137879097       -0.00001224938349
H           -3.80382610786058       -0.55225706602736       -0.00009453480058
H           -3.13927658010754        1.84515909342199        0.00003224500151
H           -0.79584669649584        2.48499802471728        0.00009293620895
H           -2.07310511438450       -2.31525825295212       -0.00010789037660
H            0.27567151215925       -2.99039585460778       -0.00002723412095
H            2.67826621773708       -2.37447485029555        0.00005139423547
H            3.36045429360542        0.01354318477547        0.00003163092238
H            1.10325269430220        2.67388713341563       -0.00021613498955
