 xtb: 6.7.1 (edcfbbe)
          04062519153D

 24 24  0     0  0            999 V2000
   -2.5616   -0.8816    0.2929 C   0  0  0  0  0  0  0  0  0  0  0  0
   -1.1261   -0.4457    0.6206 C   0  0  0  0  0  0  0  0  0  0  0  0
   -1.0106   -0.3825    1.7124 H   0  0  0  0  0  0  0  0  0  0  0  0
   -0.8242    0.9359    0.0239 C   0  0  0  0  0  0  0  0  0  0  0  0
   -1.0790    0.9128   -1.0487 H   0  0  0  0  0  0  0  0  0  0  0  0
    0.6669    1.2905    0.1847 C   0  0  0  0  0  0  0  0  0  0  0  0
    0.8839    1.4393    1.2491 H   0  0  0  0  0  0  0  0  0  0  0  0
    1.5389    0.1456   -0.3361 C   0  0  0  0  0  0  0  0  0  0  0  0
    1.3809    0.0354   -1.4232 H   0  0  0  0  0  0  0  0  0  0  0  0
    1.1021   -1.1652    0.3548 C   0  0  0  0  0  0  0  0  0  0  0  0
    1.2766   -1.0651    1.4395 H   0  0  0  0  0  0  0  0  0  0  0  0
   -0.2526   -1.4300    0.0945 O   0  0  0  0  0  0  0  0  0  0  0  0
    1.8613   -2.2394   -0.0695 O   0  0  0  0  0  0  0  0  0  0  0  0
    2.8884    0.4214   -0.0670 O   0  0  0  0  0  0  0  0  0  0  0  0
    0.9430    2.5287   -0.4198 O   0  0  0  0  0  0  0  0  0  0  0  0
   -1.6281    1.8756    0.6907 O   0  0  0  0  0  0  0  0  0  0  0  0
   -2.7736   -1.0358   -1.0850 O   0  0  0  0  0  0  0  0  0  0  0  0
   -3.2404   -0.0971    0.6303 H   0  0  0  0  0  0  0  0  0  0  0  0
   -2.7784   -1.8129    0.8280 H   0  0  0  0  0  0  0  0  0  0  0  0
    1.5212   -2.5644   -0.9182 H   0  0  0  0  0  0  0  0  0  0  0  0
    3.4000   -0.3988   -0.1526 H   0  0  0  0  0  0  0  0  0  0  0  0
    1.0157    2.4232   -1.3796 H   0  0  0  0  0  0  0  0  0  0  0  0
   -1.3064    2.7633    0.4666 H   0  0  0  0  0  0  0  0  0  0  0  0
   -2.2123   -1.7585   -1.4006 H   0  0  0  0  0  0  0  0  0  0  0  0
  1  2  1  0  0  0  0
  2  3  1  0  0  0  0
  2  4  1  0  0  0  0
  4  5  1  0  0  0  0
  4  6  1  0  0  0  0
  6  7  1  0  0  0  0
  6  8  1  0  0  0  0
  8  9  1  0  0  0  0
  8 10  1  0  0  0  0
 10 11  1  0  0  0  0
  2 12  1  0  0  0  0
 10 12  1  0  0  0  0
 10 13  1  0  0  0  0
  8 14  1  0  0  0  0
  6 15  1  0  0  0  0
  4 16  1  0  0  0  0
  1 17  1  0  0  0  0
  1 18  1  0  0  0  0
  1 19  1  0  0  0  0
 13 20  1  0  0  0  0
 14 21  1  0  0  0  0
 15 22  1  0  0  0  0
 16 23  1  0  0  0  0
 17 24  1  0  0  0  0
M  END
