26
 xtb: 6.7.1 (edcfbbe)
C           -3.36992579727855       -0.44801938791429        1.69595068758568
N           -2.33323466784466        0.01259820374605        0.77829131976184
C           -2.35915952274053       -0.34476035214681       -0.50959272454625
O           -3.22878774101547       -1.02525733857462       -1.04254294007096
O           -1.32778169480509        0.11317828764746       -1.31510031752503
C           -0.21769318604908        0.74504617895686       -0.73552067569758
C           -0.17435133251473        2.11425549043713       -0.69362055013667
C            0.96746165094226        2.75362820234785       -0.16630705079900
C            2.02696407459485        2.01471154739136        0.30233947656112
C            1.99642257092143        0.59888877162944        0.26341675985444
C            0.84761466567804       -0.06657352524699       -0.27271391222305
C            0.81658925116283       -1.48064196669568       -0.31708852614183
C            1.88229704055800       -2.20966290980864        0.15575839504527
C            3.01773711407105       -1.56056024122121        0.68705152583906
C            3.07389947438127       -0.18823271729764        0.73841070853411
H           -3.34102160825936       -1.53616786125325        1.81052624855217
H           -4.36088395126418       -0.15501807814283        1.33823499156638
H           -3.19316674859900        0.01495417188018        2.66723350841282
H           -1.57461257441570        0.57722908832230        1.13085173858400
H           -1.01615060479420        2.69002185354163       -1.06360405002716
H            0.99853063608094        3.83758487481377       -0.13518234105000
H            2.90518379966017        2.50603867538150        0.71017061070851
H           -0.05263082359915       -1.98411050505357       -0.72725554662787
H            1.85348906796166       -3.29388681856842        0.11940912661516
H            3.84938306536474       -2.15297770305512        1.05482310824606
H            3.94611193904985        0.31559995378454        1.14462137324932
