 xtb: 6.7.1 (edcfbbe)
          04042519073D

 15 14  0     0  0            999 V2000
    1.2810   -1.2136    0.2443 C   0  0  0  0  0  0  0  0  0  0  0  0
    0.4816   -0.0975   -0.4378 C   0  0  0  0  0  0  0  0  0  0  0  0
    0.9108    1.2656    0.0957 C   0  0  0  0  0  0  0  0  0  0  0  0
   -0.9860   -0.3770   -0.2766 C   0  0  0  0  0  0  0  0  0  0  0  0
   -1.8850    0.3951    0.3043 C   0  0  0  0  0  0  0  0  0  0  0  0
    2.3468   -1.0646    0.0897 H   0  0  0  0  0  0  0  0  0  0  0  0
    1.0056   -2.1857   -0.1578 H   0  0  0  0  0  0  0  0  0  0  0  0
    1.0826   -1.2143    1.3140 H   0  0  0  0  0  0  0  0  0  0  0  0
    0.7022   -0.1342   -1.5130 H   0  0  0  0  0  0  0  0  0  0  0  0
    0.3642    2.0629   -0.4016 H   0  0  0  0  0  0  0  0  0  0  0  0
    0.7315    1.3297    1.1663 H   0  0  0  0  0  0  0  0  0  0  0  0
    1.9731    1.4148   -0.0828 H   0  0  0  0  0  0  0  0  0  0  0  0
   -1.2936   -1.3322   -0.6860 H   0  0  0  0  0  0  0  0  0  0  0  0
   -2.9177    0.0974    0.3751 H   0  0  0  0  0  0  0  0  0  0  0  0
   -1.6422    1.3525    0.7307 H   0  0  0  0  0  0  0  0  0  0  0  0
  1  2  1  0  0  0  0
  2  3  1  0  0  0  0
  2  4  1  0  0  0  0
  4  5  2  0  0  0  0
  1  6  1  0  0  0  0
  1  7  1  0  0  0  0
  1  8  1  0  0  0  0
  2  9  1  0  0  0  0
  3 10  1  0  0  0  0
  3 11  1  0  0  0  0
  3 12  1  0  0  0  0
  4 13  1  0  0  0  0
  5 14  1  0  0  0  0
  5 15  1  0  0  0  0
M  END
