27
 xtb: 6.7.1 (edcfbbe)
C           -2.78755643829276        0.68703640202216        0.84465491295053
C           -1.51582295803287        0.46984208802196        0.07903445567735
C           -0.94508029434362        1.43212883982327       -0.65637053387335
C            0.34780974210524        1.28262890666899       -1.40461032404132
C            1.15509440852578        0.06061764352551       -0.95722370207999
H            1.88239739920895       -0.18745509771107       -1.74264310939715
C            0.19060672288455       -1.13434448115161       -0.84265516911881
C           -0.86039501010909       -0.88667134827337        0.22569846411458
H           -0.39654829431335       -0.94303037927645        1.22529818019447
O           -1.82436017056531       -1.96224330508929        0.11101476414924
C            1.95841136622740        0.25156785252224        0.31668785720643
C            1.91113572537121        1.35295541081771        1.07278270575246
C            2.84620592079405       -0.90417609588613        0.68928654212919
H           -3.59246332220031        0.03281347688315        0.48875085606467
H           -3.12744470189422        1.72213002803901        0.75500190835568
H           -2.64498266704856        0.46095893329279        1.91004792906484
H           -1.44054736126324        2.40088932374970       -0.72356251304154
H            0.13252249920119        1.18842407293106       -2.47877916835322
H            0.94255669147249        2.19824631974290       -1.30625836647109
H           -0.31902630159747       -1.26221183227720       -1.80579975238883
H            0.72618536601569       -2.06337953218412       -0.62670408628845
H           -2.38688577505010       -1.94225411573060        0.89573298561752
H            2.52234227319271        1.43606594915478        1.96790256825876
H            1.26771469019143        2.19488330967879        0.83810971430096
H            3.51841054006983       -0.63829558164556        1.50896575740253
H            2.25690402108258       -1.77314954676450        1.00558949461865
H            3.44722985152845       -1.22772325549944       -0.16929401623195
