 xtb: 6.7.1 (edcfbbe)
          04062518003D

 24 24  0     0  0            999 V2000
   -2.4828   -0.8094   -0.2526 C   0  0  0  0  0  0  0  0  0  0  0  0
   -1.1577   -0.5961    0.4959 C   0  0  0  0  0  0  0  0  0  0  0  0
   -1.2559   -0.9921    1.5203 H   0  0  0  0  0  0  0  0  0  0  0  0
   -0.7583    0.8871    0.6388 C   0  0  0  0  0  0  0  0  0  0  0  0
   -1.6304    1.5075    0.3876 H   0  0  0  0  0  0  0  0  0  0  0  0
    0.3746    1.2517   -0.3427 C   0  0  0  0  0  0  0  0  0  0  0  0
    0.7215    2.2666   -0.0987 H   0  0  0  0  0  0  0  0  0  0  0  0
    1.5919    0.3194   -0.1705 C   0  0  0  0  0  0  0  0  0  0  0  0
    2.0587    0.1672   -1.1559 H   0  0  0  0  0  0  0  0  0  0  0  0
    1.1289   -1.0669    0.3158 C   0  0  0  0  0  0  0  0  0  0  0  0
    1.0981   -1.0633    1.4254 H   0  0  0  0  0  0  0  0  0  0  0  0
   -0.1600   -1.3488   -0.1753 O   0  0  0  0  0  0  0  0  0  0  0  0
    2.0099   -2.0192   -0.1643 O   0  0  0  0  0  0  0  0  0  0  0  0
    2.4884    0.9328    0.7166 O   0  0  0  0  0  0  0  0  0  0  0  0
   -0.1530    1.2005   -1.6422 O   0  0  0  0  0  0  0  0  0  0  0  0
   -0.3714    1.0815    1.9768 O   0  0  0  0  0  0  0  0  0  0  0  0
   -2.7392    0.1223   -1.2687 O   0  0  0  0  0  0  0  0  0  0  0  0
   -3.3137   -0.7188    0.4497 H   0  0  0  0  0  0  0  0  0  0  0  0
   -2.4616   -1.8298   -0.6579 H   0  0  0  0  0  0  0  0  0  0  0  0
    1.6135   -2.9001   -0.0799 H   0  0  0  0  0  0  0  0  0  0  0  0
    3.2675    0.3703    0.8306 H   0  0  0  0  0  0  0  0  0  0  0  0
    0.4694    1.5954   -2.2696 H   0  0  0  0  0  0  0  0  0  0  0  0
   -0.1608    2.0137    2.1310 H   0  0  0  0  0  0  0  0  0  0  0  0
   -1.9344    0.2446   -1.7991 H   0  0  0  0  0  0  0  0  0  0  0  0
  1  2  1  0  0  0  0
  2  3  1  0  0  0  0
  2  4  1  0  0  0  0
  4  5  1  0  0  0  0
  4  6  1  0  0  0  0
  6  7  1  0  0  0  0
  6  8  1  0  0  0  0
  8  9  1  0  0  0  0
  8 10  1  0  0  0  0
 10 11  1  0  0  0  0
  2 12  1  0  0  0  0
 10 12  1  0  0  0  0
 10 13  1  0  0  0  0
  8 14  1  0  0  0  0
  6 15  1  0  0  0  0
  4 16  1  0  0  0  0
  1 17  1  0  0  0  0
  1 18  1  0  0  0  0
  1 19  1  0  0  0  0
 13 20  1  0  0  0  0
 14 21  1  0  0  0  0
 15 22  1  0  0  0  0
 16 23  1  0  0  0  0
 17 24  1  0  0  0  0
M  END
