 xtb: 6.7.1 (edcfbbe)
          04062508313D

 24 24  0     0  0            999 V2000
   -3.5331    0.3644   -0.4143 C   0  0  0  0  0  0  0  0  0  0  0  0
   -2.1283    0.3939   -0.6890 O   0  0  0  0  0  0  0  0  0  0  0  0
   -1.2988   -0.2344    0.1370 C   0  0  0  0  0  0  0  0  0  0  0  0
   -1.6646   -0.8585    1.1111 O   0  0  0  0  0  0  0  0  0  0  0  0
    0.1366   -0.0335   -0.2798 C   0  0  0  0  0  0  0  0  0  0  0  0
    0.9907   -1.2607    0.0320 C   0  0  0  0  0  0  0  0  0  0  0  0
    2.4017   -1.0806   -0.5400 C   0  0  0  0  0  0  0  0  0  0  0  0
    2.8320    0.3916   -0.5256 C   0  0  0  0  0  0  0  0  0  0  0  0
    2.1993    1.1145    0.6578 C   0  0  0  0  0  0  0  0  0  0  0  0
    0.6776    1.1936    0.4870 C   0  0  0  0  0  0  0  0  0  0  0  0
   -4.0352    0.2395   -1.3701 H   0  0  0  0  0  0  0  0  0  0  0  0
   -3.8192    1.3094    0.0464 H   0  0  0  0  0  0  0  0  0  0  0  0
   -3.7612   -0.4619    0.2598 H   0  0  0  0  0  0  0  0  0  0  0  0
    0.1462    0.1659   -1.3536 H   0  0  0  0  0  0  0  0  0  0  0  0
    1.0209   -1.3907    1.1146 H   0  0  0  0  0  0  0  0  0  0  0  0
    0.5251   -2.1545   -0.3864 H   0  0  0  0  0  0  0  0  0  0  0  0
    3.0982   -1.6769    0.0504 H   0  0  0  0  0  0  0  0  0  0  0  0
    2.4342   -1.4554   -1.5638 H   0  0  0  0  0  0  0  0  0  0  0  0
    3.9187    0.4573   -0.4679 H   0  0  0  0  0  0  0  0  0  0  0  0
    2.5208    0.8842   -1.4480 H   0  0  0  0  0  0  0  0  0  0  0  0
    2.4457    0.5763    1.5738 H   0  0  0  0  0  0  0  0  0  0  0  0
    2.6040    2.1230    0.7471 H   0  0  0  0  0  0  0  0  0  0  0  0
    0.2041    1.2412    1.4704 H   0  0  0  0  0  0  0  0  0  0  0  0
    0.4022    2.0961   -0.0597 H   0  0  0  0  0  0  0  0  0  0  0  0
  1  2  1  0  0  0  0
  2  3  1  0  0  0  0
  3  4  2  0  0  0  0
  3  5  1  0  0  0  0
  5  6  1  0  0  0  0
  6  7  1  0  0  0  0
  7  8  1  0  0  0  0
  8  9  1  0  0  0  0
  5 10  1  0  0  0  0
  9 10  1  0  0  0  0
  1 11  1  0  0  0  0
  1 12  1  0  0  0  0
  1 13  1  0  0  0  0
  5 14  1  0  0  0  0
  6 15  1  0  0  0  0
  6 16  1  0  0  0  0
  7 17  1  0  0  0  0
  7 18  1  0  0  0  0
  8 19  1  0  0  0  0
  8 20  1  0  0  0  0
  9 21  1  0  0  0  0
  9 22  1  0  0  0  0
 10 23  1  0  0  0  0
 10 24  1  0  0  0  0
M  END
