27
 xtb: 6.7.1 (edcfbbe)
C           -3.43597246127305        0.57443703888541        0.05651249211637
C           -1.93941897175624        0.47900116463059        0.06899340991363
C           -1.14228192631693        1.50536752869935       -0.25050020623988
C            0.35491715641138        1.44650574715626       -0.28898963758656
C            0.87704164284011        0.00093331172620       -0.29371892927108
H            0.62360366289203       -0.43589801717516       -1.26828689826029
C            0.12968003520254       -0.78540282979451        0.78839821380008
C           -1.36455250897259       -0.84961872639623        0.49071669503743
H           -1.89521047302667       -1.17942553732130        1.39713356980723
O           -1.65619155475915       -1.80031612450432       -0.57105552403253
C            2.37943906716417       -0.05459886599459       -0.13988651711189
C            3.16354810835544       -0.34421942854366       -1.18378009965896
C            2.95063500904253        0.23064491535787        1.21943712096858
H           -3.87250813488017       -0.17104276681979       -0.61850654534593
H           -3.77064863325791        1.56462421264282       -0.26419242296804
H           -3.84708814971413        0.37353024740746        1.05388702299322
H           -1.59803077631547        2.46182592232361       -0.50632258173153
H            0.71877158141847        1.97367483708135       -1.17972991083947
H            0.76305560355041        1.99588233360223        0.57233126910099
H            0.52112480341903       -1.80639774128125        0.87645269560657
H            0.26641270874694       -0.29810749178211        1.76248496436184
H           -1.43214601654166       -2.67646030700178       -0.23008609338543
H            4.24659031362757       -0.36513592153784       -1.09071703985852
H            2.74142721651050       -0.56351105156901       -2.16162901579484
H            2.57044447440208        1.17406349172064        1.62786672378050
H            2.66738848767277       -0.55364959317434        1.93149229122640
H            4.04171468168732        0.28212372979570        1.18526686251747
