 xtb: 6.7.1 (edcfbbe)
          04062508313D

 24 24  0     0  0            999 V2000
   -2.9231   -1.0561    0.3332 C   0  0  0  0  0  0  0  0  0  0  0  0
   -1.7429   -0.6971   -0.3900 O   0  0  0  0  0  0  0  0  0  0  0  0
   -1.0317    0.3486    0.0222 C   0  0  0  0  0  0  0  0  0  0  0  0
   -1.3434    1.0234    0.9818 O   0  0  0  0  0  0  0  0  0  0  0  0
    0.1473    0.6427   -0.8850 C   0  0  0  0  0  0  0  0  0  0  0  0
    0.8191   -0.6176   -1.4568 C   0  0  0  0  0  0  0  0  0  0  0  0
    1.9825   -1.0816   -0.5716 C   0  0  0  0  0  0  0  0  0  0  0  0
    1.7063   -0.7351    0.8865 C   0  0  0  0  0  0  0  0  0  0  0  0
    1.7272    0.7842    1.0799 C   0  0  0  0  0  0  0  0  0  0  0  0
    1.1704    1.5120   -0.1517 C   0  0  0  0  0  0  0  0  0  0  0  0
   -3.6858   -1.2872   -0.4062 H   0  0  0  0  0  0  0  0  0  0  0  0
   -3.2345   -0.2277    0.9706 H   0  0  0  0  0  0  0  0  0  0  0  0
   -2.7067   -1.9330    0.9428 H   0  0  0  0  0  0  0  0  0  0  0  0
   -0.2871    1.2170   -1.7119 H   0  0  0  0  0  0  0  0  0  0  0  0
    0.0744   -1.4082   -1.5430 H   0  0  0  0  0  0  0  0  0  0  0  0
    1.1897   -0.4005   -2.4586 H   0  0  0  0  0  0  0  0  0  0  0  0
    2.1228   -2.1569   -0.6858 H   0  0  0  0  0  0  0  0  0  0  0  0
    2.9081   -0.5919   -0.8772 H   0  0  0  0  0  0  0  0  0  0  0  0
    0.7273   -1.1316    1.1682 H   0  0  0  0  0  0  0  0  0  0  0  0
    2.4465   -1.2005    1.5386 H   0  0  0  0  0  0  0  0  0  0  0  0
    1.1323    1.0428    1.9574 H   0  0  0  0  0  0  0  0  0  0  0  0
    2.7489    1.1208    1.2608 H   0  0  0  0  0  0  0  0  0  0  0  0
    0.7042    2.4485    0.1559 H   0  0  0  0  0  0  0  0  0  0  0  0
    1.9747    1.7457   -0.8490 H   0  0  0  0  0  0  0  0  0  0  0  0
  1  2  1  0  0  0  0
  2  3  1  0  0  0  0
  3  4  2  0  0  0  0
  3  5  1  0  0  0  0
  5  6  1  0  0  0  0
  6  7  1  0  0  0  0
  7  8  1  0  0  0  0
  8  9  1  0  0  0  0
  5 10  1  0  0  0  0
  9 10  1  0  0  0  0
  1 11  1  0  0  0  0
  1 12  1  0  0  0  0
  1 13  1  0  0  0  0
  5 14  1  0  0  0  0
  6 15  1  0  0  0  0
  6 16  1  0  0  0  0
  7 17  1  0  0  0  0
  7 18  1  0  0  0  0
  8 19  1  0  0  0  0
  8 20  1  0  0  0  0
  9 21  1  0  0  0  0
  9 22  1  0  0  0  0
 10 23  1  0  0  0  0
 10 24  1  0  0  0  0
M  END
