24
 xtb: 6.7.1 (edcfbbe)
C           -2.13752259668855       -1.15363580430785       -0.23224469780585
C           -1.28767258270187       -0.32963412558101        0.72580231554826
H           -1.90043864648227       -0.15925333584433        1.61752348927287
C           -0.88785765011685        1.05043943327046        0.17236624296457
H           -1.17027430980660        1.12054837952979       -0.88805575124955
C            0.61501731468048        1.27094148588152        0.25543269774596
H            0.92423511745475        1.35755627509131        1.30845864044912
C            1.30647543586606        0.08063782717204       -0.38917477307866
H            0.92033219147955       -0.04188616682491       -1.41108582786160
C            1.00540619340964       -1.18422684228273        0.42659635629907
H            1.81966289128311       -1.36697027574999        1.13692112700844
O           -0.14978335819865       -1.06716559804323        1.23971820818244
O            0.91817838645870       -2.27374554859128       -0.48984020267304
O            2.71195949683406        0.34191734540295       -0.42295226006096
O            0.89887259345393        2.48497632644744       -0.44497827395983
O           -1.60795668571062        2.03923805290471        0.92270930816519
O           -1.54763139088354       -1.37972421122626       -1.51457090285883
H           -3.06897188793872       -0.60317491208898       -0.40557633284617
H           -2.38867635561930       -2.10657084433974        0.25485462647923
H            0.90846764381939       -3.09529119928779        0.02300119391491
H            3.10961176957219       -0.25178769411353       -1.07303878509045
H            1.85601537173629        2.61713322230377       -0.41459555682910
H           -1.45660999554490        2.89135880430860        0.49156288512233
H           -0.72261897841857       -1.87651023037298       -1.35991060233904
