 xtb: 6.7.1 (edcfbbe)
          04062518003D

 24 24  0     0  0            999 V2000
   -1.9072   -1.2905   -0.3487 C   0  0  0  0  0  0  0  0  0  0  0  0
   -1.2455   -0.4364    0.7469 C   0  0  0  0  0  0  0  0  0  0  0  0
   -1.9259   -0.4153    1.6039 H   0  0  0  0  0  0  0  0  0  0  0  0
   -0.9887    1.0212    0.2825 C   0  0  0  0  0  0  0  0  0  0  0  0
   -1.4012    1.1453   -0.7244 H   0  0  0  0  0  0  0  0  0  0  0  0
    0.5229    1.2816    0.2313 C   0  0  0  0  0  0  0  0  0  0  0  0
    0.9170    1.3788    1.2510 H   0  0  0  0  0  0  0  0  0  0  0  0
    1.2162    0.0869   -0.4427 C   0  0  0  0  0  0  0  0  0  0  0  0
    0.7462   -0.0987   -1.4203 H   0  0  0  0  0  0  0  0  0  0  0  0
    1.0256   -1.1577    0.4457 C   0  0  0  0  0  0  0  0  0  0  0  0
    1.8928   -1.2337    1.1219 H   0  0  0  0  0  0  0  0  0  0  0  0
   -0.0729   -1.0317    1.2968 O   0  0  0  0  0  0  0  0  0  0  0  0
    0.8929   -2.3339   -0.3036 O   0  0  0  0  0  0  0  0  0  0  0  0
    2.5948    0.3169   -0.6015 O   0  0  0  0  0  0  0  0  0  0  0  0
    0.8613    2.4825   -0.4144 O   0  0  0  0  0  0  0  0  0  0  0  0
   -1.6703    1.9629    1.0691 O   0  0  0  0  0  0  0  0  0  0  0  0
   -1.3986   -0.9671   -1.6253 O   0  0  0  0  0  0  0  0  0  0  0  0
   -2.9866   -1.0944   -0.3212 H   0  0  0  0  0  0  0  0  0  0  0  0
   -1.7169   -2.3416   -0.1076 H   0  0  0  0  0  0  0  0  0  0  0  0
    1.7091   -2.4928   -0.7986 H   0  0  0  0  0  0  0  0  0  0  0  0
    2.7199    1.2637   -0.7827 H   0  0  0  0  0  0  0  0  0  0  0  0
    0.3446    2.5741   -1.2287 H   0  0  0  0  0  0  0  0  0  0  0  0
   -1.2973    1.9828    1.9622 H   0  0  0  0  0  0  0  0  0  0  0  0
   -1.7593   -1.5917   -2.2698 H   0  0  0  0  0  0  0  0  0  0  0  0
  1  2  1  0  0  0  0
  2  3  1  0  0  0  0
  2  4  1  0  0  0  0
  4  5  1  0  0  0  0
  4  6  1  0  0  0  0
  6  7  1  0  0  0  0
  6  8  1  0  0  0  0
  8  9  1  0  0  0  0
  8 10  1  0  0  0  0
 10 11  1  0  0  0  0
  2 12  1  0  0  0  0
 10 12  1  0  0  0  0
 10 13  1  0  0  0  0
  8 14  1  0  0  0  0
  6 15  1  0  0  0  0
  4 16  1  0  0  0  0
  1 17  1  0  0  0  0
  1 18  1  0  0  0  0
  1 19  1  0  0  0  0
 13 20  1  0  0  0  0
 14 21  1  0  0  0  0
 15 22  1  0  0  0  0
 16 23  1  0  0  0  0
 17 24  1  0  0  0  0
M  END
