 xtb: 6.7.1 (edcfbbe)
          04062518003D

 24 24  0     0  0            999 V2000
   -2.0722   -1.3840   -0.1473 C   0  0  0  0  0  0  0  0  0  0  0  0
   -1.0152   -0.5079    0.5410 C   0  0  0  0  0  0  0  0  0  0  0  0
   -1.4549   -0.1548    1.4839 H   0  0  0  0  0  0  0  0  0  0  0  0
   -0.6122    0.7025   -0.3086 C   0  0  0  0  0  0  0  0  0  0  0  0
   -0.4595    0.3997   -1.3510 H   0  0  0  0  0  0  0  0  0  0  0  0
    0.7237    1.2512    0.2282 C   0  0  0  0  0  0  0  0  0  0  0  0
    0.6345    1.4066    1.3185 H   0  0  0  0  0  0  0  0  0  0  0  0
    1.8223    0.2128   -0.0380 C   0  0  0  0  0  0  0  0  0  0  0  0
    2.1903    0.3521   -1.0593 H   0  0  0  0  0  0  0  0  0  0  0  0
    1.2323   -1.2175    0.0634 C   0  0  0  0  0  0  0  0  0  0  0  0
    1.9791   -1.8566    0.5540 H   0  0  0  0  0  0  0  0  0  0  0  0
    0.1200   -1.2785    0.9278 O   0  0  0  0  0  0  0  0  0  0  0  0
    0.9303   -1.6700   -1.2171 O   0  0  0  0  0  0  0  0  0  0  0  0
    2.9409    0.3637    0.7913 O   0  0  0  0  0  0  0  0  0  0  0  0
    1.0523    2.4689   -0.3874 O   0  0  0  0  0  0  0  0  0  0  0  0
   -1.5836    1.7129   -0.3479 O   0  0  0  0  0  0  0  0  0  0  0  0
   -3.3148   -0.7347   -0.0184 O   0  0  0  0  0  0  0  0  0  0  0  0
   -2.0856   -2.3569    0.3624 H   0  0  0  0  0  0  0  0  0  0  0  0
   -1.8023   -1.5274   -1.1996 H   0  0  0  0  0  0  0  0  0  0  0  0
    0.8412   -2.6354   -1.2247 H   0  0  0  0  0  0  0  0  0  0  0  0
    2.6647    0.3991    1.7194 H   0  0  0  0  0  0  0  0  0  0  0  0
    0.2205    2.9072   -0.6385 H   0  0  0  0  0  0  0  0  0  0  0  0
   -1.9888    1.8256    0.5242 H   0  0  0  0  0  0  0  0  0  0  0  0
   -3.9826   -1.2110   -0.5301 H   0  0  0  0  0  0  0  0  0  0  0  0
  1  2  1  0  0  0  0
  2  3  1  0  0  0  0
  2  4  1  0  0  0  0
  4  5  1  0  0  0  0
  4  6  1  0  0  0  0
  6  7  1  0  0  0  0
  6  8  1  0  0  0  0
  8  9  1  0  0  0  0
  8 10  1  0  0  0  0
 10 11  1  0  0  0  0
  2 12  1  0  0  0  0
 10 12  1  0  0  0  0
 10 13  1  0  0  0  0
  8 14  1  0  0  0  0
  6 15  1  0  0  0  0
  4 16  1  0  0  0  0
  1 17  1  0  0  0  0
  1 18  1  0  0  0  0
  1 19  1  0  0  0  0
 13 20  1  0  0  0  0
 14 21  1  0  0  0  0
 15 22  1  0  0  0  0
 16 23  1  0  0  0  0
 17 24  1  0  0  0  0
M  END
