 xtb: 6.7.1 (edcfbbe)
          04052500023D

 16 15  0     0  0            999 V2000
    1.4463    0.0283    1.1796 C   0  0  0  0  0  0  0  0  0  0  0  0
    0.6820    0.4572   -0.0774 C   0  0  0  0  0  0  0  0  0  0  0  0
    1.3903   -0.0299   -1.3386 C   0  0  0  0  0  0  0  0  0  0  0  0
   -0.7501   -0.0430   -0.0310 C   0  0  0  0  0  0  0  0  0  0  0  0
   -1.2210   -0.7448   -0.9049 O   0  0  0  0  0  0  0  0  0  0  0  0
   -1.5560    0.3781    1.1646 C   0  0  0  0  0  0  0  0  0  0  0  0
    2.4789    0.3582    1.1038 H   0  0  0  0  0  0  0  0  0  0  0  0
    1.0119    0.4608    2.0751 H   0  0  0  0  0  0  0  0  0  0  0  0
    1.4393   -1.0555    1.2708 H   0  0  0  0  0  0  0  0  0  0  0  0
    0.6300    1.5517   -0.0975 H   0  0  0  0  0  0  0  0  0  0  0  0
    1.4598   -1.1154   -1.3338 H   0  0  0  0  0  0  0  0  0  0  0  0
    2.3914    0.3877   -1.3974 H   0  0  0  0  0  0  0  0  0  0  0  0
    0.8313    0.2647   -2.2239 H   0  0  0  0  0  0  0  0  0  0  0  0
   -2.6160    0.3061    0.9361 H   0  0  0  0  0  0  0  0  0  0  0  0
   -1.3007    1.3846    1.4789 H   0  0  0  0  0  0  0  0  0  0  0  0
   -1.3391   -0.3075    1.9818 H   0  0  0  0  0  0  0  0  0  0  0  0
  1  2  1  0  0  0  0
  2  3  1  0  0  0  0
  2  4  1  0  0  0  0
  4  5  2  0  0  0  0
  4  6  1  0  0  0  0
  1  7  1  0  0  0  0
  1  8  1  0  0  0  0
  1  9  1  0  0  0  0
  2 10  1  0  0  0  0
  3 11  1  0  0  0  0
  3 12  1  0  0  0  0
  3 13  1  0  0  0  0
  6 14  1  0  0  0  0
  6 15  1  0  0  0  0
  6 16  1  0  0  0  0
M  END
