 xtb: 6.7.1 (edcfbbe)
          04062518003D

 24 24  0     0  0            999 V2000
   -2.5714   -0.7015   -0.2966 C   0  0  0  0  0  0  0  0  0  0  0  0
   -1.1949   -0.2831    0.2361 C   0  0  0  0  0  0  0  0  0  0  0  0
   -1.2237   -0.2396    1.3360 H   0  0  0  0  0  0  0  0  0  0  0  0
   -0.7337    1.0822   -0.3049 C   0  0  0  0  0  0  0  0  0  0  0  0
   -0.7374    1.0508   -1.4037 H   0  0  0  0  0  0  0  0  0  0  0  0
    0.7041    1.3438    0.1676 C   0  0  0  0  0  0  0  0  0  0  0  0
    0.6912    1.4509    1.2637 H   0  0  0  0  0  0  0  0  0  0  0  0
    1.6248    0.1752   -0.2018 C   0  0  0  0  0  0  0  0  0  0  0  0
    1.6984    0.1267   -1.3001 H   0  0  0  0  0  0  0  0  0  0  0  0
    1.0213   -1.1436    0.3156 C   0  0  0  0  0  0  0  0  0  0  0  0
    1.0207   -1.1209    1.4171 H   0  0  0  0  0  0  0  0  0  0  0  0
   -0.2927   -1.2959   -0.1782 O   0  0  0  0  0  0  0  0  0  0  0  0
    1.7417   -2.2578   -0.0429 O   0  0  0  0  0  0  0  0  0  0  0  0
    2.8955    0.3257    0.3701 O   0  0  0  0  0  0  0  0  0  0  0  0
    1.2386    2.5018   -0.4253 O   0  0  0  0  0  0  0  0  0  0  0  0
   -1.5093    2.1529    0.1744 O   0  0  0  0  0  0  0  0  0  0  0  0
   -2.9946   -1.9214    0.2517 O   0  0  0  0  0  0  0  0  0  0  0  0
   -2.5184   -0.7690   -1.3912 H   0  0  0  0  0  0  0  0  0  0  0  0
   -3.3238    0.0322   -0.0052 H   0  0  0  0  0  0  0  0  0  0  0  0
    1.7515   -2.3516   -1.0091 H   0  0  0  0  0  0  0  0  0  0  0  0
    3.2383    1.1987    0.1214 H   0  0  0  0  0  0  0  0  0  0  0  0
    0.6447    3.2443   -0.2388 H   0  0  0  0  0  0  0  0  0  0  0  0
   -2.3702    2.1738   -0.2644 H   0  0  0  0  0  0  0  0  0  0  0  0
   -2.3027   -2.5812    0.0964 H   0  0  0  0  0  0  0  0  0  0  0  0
  1  2  1  0  0  0  0
  2  3  1  0  0  0  0
  2  4  1  0  0  0  0
  4  5  1  0  0  0  0
  4  6  1  0  0  0  0
  6  7  1  0  0  0  0
  6  8  1  0  0  0  0
  8  9  1  0  0  0  0
  8 10  1  0  0  0  0
 10 11  1  0  0  0  0
  2 12  1  0  0  0  0
 10 12  1  0  0  0  0
 10 13  1  0  0  0  0
  8 14  1  0  0  0  0
  6 15  1  0  0  0  0
  4 16  1  0  0  0  0
  1 17  1  0  0  0  0
  1 18  1  0  0  0  0
  1 19  1  0  0  0  0
 13 20  1  0  0  0  0
 14 21  1  0  0  0  0
 15 22  1  0  0  0  0
 16 23  1  0  0  0  0
 17 24  1  0  0  0  0
M  END
