 xtb: 6.7.1 (edcfbbe)
          04052503113D

 18 18  0     0  0            999 V2000
   -2.6219   -1.4567   -0.0041 C   0  0  0  0  0  0  0  0  0  0  0  0
   -2.2180   -0.1025   -0.0161 O   0  0  0  0  0  0  0  0  0  0  0  0
   -0.8773    0.1833   -0.0085 C   0  0  0  0  0  0  0  0  0  0  0  0
   -0.5524    1.5401   -0.0301 C   0  0  0  0  0  0  0  0  0  0  0  0
    0.7744    1.9224   -0.0227 C   0  0  0  0  0  0  0  0  0  0  0  0
    1.7841    0.9801    0.0071 C   0  0  0  0  0  0  0  0  0  0  0  0
    1.4706   -0.3796    0.0291 C   0  0  0  0  0  0  0  0  0  0  0  0
    0.1274   -0.7690    0.0240 C   0  0  0  0  0  0  0  0  0  0  0  0
    2.4624   -1.3303   -0.0131 N   0  0  0  0  0  0  0  0  0  0  0  0
   -2.2845   -1.9620    0.9052 H   0  0  0  0  0  0  0  0  0  0  0  0
   -2.2495   -1.9884   -0.8840 H   0  0  0  0  0  0  0  0  0  0  0  0
   -3.7092   -1.4317   -0.0254 H   0  0  0  0  0  0  0  0  0  0  0  0
   -1.3513    2.2634   -0.0515 H   0  0  0  0  0  0  0  0  0  0  0  0
    1.0240    2.9728   -0.0377 H   0  0  0  0  0  0  0  0  0  0  0  0
    2.8184    1.2889    0.0112 H   0  0  0  0  0  0  0  0  0  0  0  0
   -0.1026   -1.8227    0.0412 H   0  0  0  0  0  0  0  0  0  0  0  0
    3.3822   -1.0269    0.2589 H   0  0  0  0  0  0  0  0  0  0  0  0
    2.2104   -2.2587    0.2816 H   0  0  0  0  0  0  0  0  0  0  0  0
  1  2  1  0  0  0  0
  2  3  1  0  0  0  0
  3  4  4  0  0  0  0
  4  5  4  0  0  0  0
  5  6  4  0  0  0  0
  6  7  4  0  0  0  0
  3  8  4  0  0  0  0
  7  8  4  0  0  0  0
  7  9  1  0  0  0  0
  1 10  1  0  0  0  0
  1 11  1  0  0  0  0
  1 12  1  0  0  0  0
  4 13  1  0  0  0  0
  5 14  1  0  0  0  0
  6 15  1  0  0  0  0
  8 16  1  0  0  0  0
  9 17  1  0  0  0  0
  9 18  1  0  0  0  0
M  END
