 xtb: 6.7.1 (edcfbbe)
          04062518003D

 24 24  0     0  0            999 V2000
   -2.5584   -0.8767    0.2975 C   0  0  0  0  0  0  0  0  0  0  0  0
   -1.1188   -0.4479    0.6188 C   0  0  0  0  0  0  0  0  0  0  0  0
   -0.9882   -0.4200    1.7122 H   0  0  0  0  0  0  0  0  0  0  0  0
   -0.8247    0.9556    0.0452 C   0  0  0  0  0  0  0  0  0  0  0  0
   -1.0809    0.9674   -1.0196 H   0  0  0  0  0  0  0  0  0  0  0  0
    0.6648    1.2910    0.2059 C   0  0  0  0  0  0  0  0  0  0  0  0
    0.8914    1.4093    1.2803 H   0  0  0  0  0  0  0  0  0  0  0  0
    1.5348    0.1463   -0.3270 C   0  0  0  0  0  0  0  0  0  0  0  0
    1.3922    0.0716   -1.4165 H   0  0  0  0  0  0  0  0  0  0  0  0
    1.1032   -1.1803    0.3268 C   0  0  0  0  0  0  0  0  0  0  0  0
    1.2851   -1.1161    1.4137 H   0  0  0  0  0  0  0  0  0  0  0  0
   -0.2554   -1.4278    0.0675 O   0  0  0  0  0  0  0  0  0  0  0  0
    1.8524   -2.2473   -0.1309 O   0  0  0  0  0  0  0  0  0  0  0  0
    2.8746    0.4470   -0.0229 O   0  0  0  0  0  0  0  0  0  0  0  0
    0.9304    2.4914   -0.4725 O   0  0  0  0  0  0  0  0  0  0  0  0
   -1.6528    1.9181    0.6377 O   0  0  0  0  0  0  0  0  0  0  0  0
   -2.7730   -1.0468   -1.0775 O   0  0  0  0  0  0  0  0  0  0  0  0
   -3.2359   -0.0844    0.6201 H   0  0  0  0  0  0  0  0  0  0  0  0
   -2.7831   -1.8012    0.8426 H   0  0  0  0  0  0  0  0  0  0  0  0
    1.5259   -2.5265   -1.0008 H   0  0  0  0  0  0  0  0  0  0  0  0
    3.4211   -0.3377   -0.1821 H   0  0  0  0  0  0  0  0  0  0  0  0
    1.8852    2.6562   -0.4419 H   0  0  0  0  0  0  0  0  0  0  0  0
   -1.3355    2.1292    1.5281 H   0  0  0  0  0  0  0  0  0  0  0  0
   -2.1850   -1.7479   -1.3929 H   0  0  0  0  0  0  0  0  0  0  0  0
  1  2  1  0  0  0  0
  2  3  1  0  0  0  0
  2  4  1  0  0  0  0
  4  5  1  0  0  0  0
  4  6  1  0  0  0  0
  6  7  1  0  0  0  0
  6  8  1  0  0  0  0
  8  9  1  0  0  0  0
  8 10  1  0  0  0  0
 10 11  1  0  0  0  0
  2 12  1  0  0  0  0
 10 12  1  0  0  0  0
 10 13  1  0  0  0  0
  8 14  1  0  0  0  0
  6 15  1  0  0  0  0
  4 16  1  0  0  0  0
  1 17  1  0  0  0  0
  1 18  1  0  0  0  0
  1 19  1  0  0  0  0
 13 20  1  0  0  0  0
 14 21  1  0  0  0  0
 15 22  1  0  0  0  0
 16 23  1  0  0  0  0
 17 24  1  0  0  0  0
M  END
