 xtb: 6.7.1 (edcfbbe)
          04062518003D

 24 24  0     0  0            999 V2000
   -1.7724   -0.6002   -1.1097 C   0  0  0  0  0  0  0  0  0  0  0  0
   -1.2416   -0.5028    0.3390 C   0  0  0  0  0  0  0  0  0  0  0  0
   -2.0562   -0.7944    1.0162 H   0  0  0  0  0  0  0  0  0  0  0  0
   -0.8049    0.9275    0.6814 C   0  0  0  0  0  0  0  0  0  0  0  0
   -1.6020    1.6105    0.3577 H   0  0  0  0  0  0  0  0  0  0  0  0
    0.4701    1.3322   -0.0801 C   0  0  0  0  0  0  0  0  0  0  0  0
    1.0593    1.9646    0.5999 H   0  0  0  0  0  0  0  0  0  0  0  0
    1.3379    0.1137   -0.4289 C   0  0  0  0  0  0  0  0  0  0  0  0
    1.0395   -0.2818   -1.4123 H   0  0  0  0  0  0  0  0  0  0  0  0
    1.1121   -0.9989    0.5998 C   0  0  0  0  0  0  0  0  0  0  0  0
    1.3646   -0.6125    1.6067 H   0  0  0  0  0  0  0  0  0  0  0  0
   -0.2187   -1.4600    0.5926 O   0  0  0  0  0  0  0  0  0  0  0  0
    1.9368   -2.0607    0.2587 O   0  0  0  0  0  0  0  0  0  0  0  0
    2.6811    0.5212   -0.4509 O   0  0  0  0  0  0  0  0  0  0  0  0
    0.0941    2.0477   -1.2294 O   0  0  0  0  0  0  0  0  0  0  0  0
   -0.5347    1.0756    2.0565 O   0  0  0  0  0  0  0  0  0  0  0  0
   -3.1445   -0.3097   -1.1863 O   0  0  0  0  0  0  0  0  0  0  0  0
   -1.5541   -1.6057   -1.4881 H   0  0  0  0  0  0  0  0  0  0  0  0
   -1.2811    0.1385   -1.7450 H   0  0  0  0  0  0  0  0  0  0  0  0
    1.6979   -2.8386    0.7851 H   0  0  0  0  0  0  0  0  0  0  0  0
    3.2427   -0.2643   -0.5391 H   0  0  0  0  0  0  0  0  0  0  0  0
    0.8870    2.4157   -1.6460 H   0  0  0  0  0  0  0  0  0  0  0  0
   -1.3572    1.0062    2.5632 H   0  0  0  0  0  0  0  0  0  0  0  0
   -3.6539   -1.0220   -0.7730 H   0  0  0  0  0  0  0  0  0  0  0  0
  1  2  1  0  0  0  0
  2  3  1  0  0  0  0
  2  4  1  0  0  0  0
  4  5  1  0  0  0  0
  4  6  1  0  0  0  0
  6  7  1  0  0  0  0
  6  8  1  0  0  0  0
  8  9  1  0  0  0  0
  8 10  1  0  0  0  0
 10 11  1  0  0  0  0
  2 12  1  0  0  0  0
 10 12  1  0  0  0  0
 10 13  1  0  0  0  0
  8 14  1  0  0  0  0
  6 15  1  0  0  0  0
  4 16  1  0  0  0  0
  1 17  1  0  0  0  0
  1 18  1  0  0  0  0
  1 19  1  0  0  0  0
 13 20  1  0  0  0  0
 14 21  1  0  0  0  0
 15 22  1  0  0  0  0
 16 23  1  0  0  0  0
 17 24  1  0  0  0  0
M  END
