16
 xtb: 6.7.1 (edcfbbe)
C           -2.97900329227455       -0.35491282068363       -0.00187688378327
C           -1.96875013215165        0.52197003110443        0.00205100357033
C           -0.53416362996194        0.21646002316201        0.00099769602037
C            0.38172392560743        1.27987387023164        0.00017684219042
C            1.75359469647771        1.04628337040436       -0.00089743485130
C            2.23893390985616       -0.25863613412446       -0.00100892297996
C            1.33974228356461       -1.32656669831398       -0.00007592689842
C           -0.02919844092644       -1.09458124173067        0.00092380610516
H           -4.00737285156097       -0.00771520630515       -0.00104248179278
H           -2.82371231131761       -1.43018541372144       -0.00679364769989
H           -2.20478411751499        1.58565046780994        0.00545666826755
H            0.00636739809588        2.29973300940087        0.00035682967385
H            2.44360195011416        1.88452036049071       -0.00150870057365
H            3.30819908534732       -0.44528815793845       -0.00175865906450
H            1.71073056859146       -2.34700895815760        0.00011984819181
H           -0.71006997197734       -1.93976999880799        0.00202770811227
