 xtb: 6.7.1 (edcfbbe)
          04062518003D

 24 24  0     0  0            999 V2000
   -2.3223   -0.6783   -0.7869 C   0  0  0  0  0  0  0  0  0  0  0  0
   -1.1128   -0.5566    0.1517 C   0  0  0  0  0  0  0  0  0  0  0  0
   -1.3520   -1.0144    1.1259 H   0  0  0  0  0  0  0  0  0  0  0  0
   -0.7248    0.9094    0.4371 C   0  0  0  0  0  0  0  0  0  0  0  0
   -1.5630    1.5579    0.1421 H   0  0  0  0  0  0  0  0  0  0  0  0
    0.5146    1.2926   -0.4003 C   0  0  0  0  0  0  0  0  0  0  0  0
    0.8156    2.3177   -0.1588 H   0  0  0  0  0  0  0  0  0  0  0  0
    1.7033    0.3679   -0.0635 C   0  0  0  0  0  0  0  0  0  0  0  0
    2.3423    0.3114   -0.9591 H   0  0  0  0  0  0  0  0  0  0  0  0
    1.1731   -1.0504    0.2640 C   0  0  0  0  0  0  0  0  0  0  0  0
    0.9945   -1.1141    1.3492 H   0  0  0  0  0  0  0  0  0  0  0  0
   -0.0365   -1.2686   -0.4372 O   0  0  0  0  0  0  0  0  0  0  0  0
    2.0687   -2.0537   -0.0540 O   0  0  0  0  0  0  0  0  0  0  0  0
    2.4135    0.9293    1.0086 O   0  0  0  0  0  0  0  0  0  0  0  0
    0.2268    1.2894   -1.7742 O   0  0  0  0  0  0  0  0  0  0  0  0
   -0.4821    1.0130    1.8198 O   0  0  0  0  0  0  0  0  0  0  0  0
   -3.4847   -0.1227   -0.2343 O   0  0  0  0  0  0  0  0  0  0  0  0
   -2.4567   -1.7371   -1.0377 H   0  0  0  0  0  0  0  0  0  0  0  0
   -2.1364   -0.1190   -1.7059 H   0  0  0  0  0  0  0  0  0  0  0  0
    2.0434   -2.2245   -1.0082 H   0  0  0  0  0  0  0  0  0  0  0  0
    3.1590    0.3574    1.2411 H   0  0  0  0  0  0  0  0  0  0  0  0
    0.0553    0.3771   -2.0534 H   0  0  0  0  0  0  0  0  0  0  0  0
   -0.1888    1.9083    2.0393 H   0  0  0  0  0  0  0  0  0  0  0  0
   -3.7520   -0.6268    0.5476 H   0  0  0  0  0  0  0  0  0  0  0  0
  1  2  1  0  0  0  0
  2  3  1  0  0  0  0
  2  4  1  0  0  0  0
  4  5  1  0  0  0  0
  4  6  1  0  0  0  0
  6  7  1  0  0  0  0
  6  8  1  0  0  0  0
  8  9  1  0  0  0  0
  8 10  1  0  0  0  0
 10 11  1  0  0  0  0
  2 12  1  0  0  0  0
 10 12  1  0  0  0  0
 10 13  1  0  0  0  0
  8 14  1  0  0  0  0
  6 15  1  0  0  0  0
  4 16  1  0  0  0  0
  1 17  1  0  0  0  0
  1 18  1  0  0  0  0
  1 19  1  0  0  0  0
 13 20  1  0  0  0  0
 14 21  1  0  0  0  0
 15 22  1  0  0  0  0
 16 23  1  0  0  0  0
 17 24  1  0  0  0  0
M  END
