 xtb: 6.7.1 (edcfbbe)
          04032521553D

 12 12  0     0  0            999 V2000
    2.2922    0.1483    0.0001 C   0  0  0  0  0  0  0  0  0  0  0  0
    0.8111    0.2706   -0.0000 C   0  0  0  0  0  0  0  0  0  0  0  0
    0.0475    1.3940   -0.0002 C   0  0  0  0  0  0  0  0  0  0  0  0
   -1.3437    1.1292   -0.0000 C   0  0  0  0  0  0  0  0  0  0  0  0
   -1.6218   -0.1961    0.0003 C   0  0  0  0  0  0  0  0  0  0  0  0
   -0.1887   -1.1524    0.0002 S   0  0  0  0  0  0  0  0  0  0  0  0
    2.7443    1.1364   -0.0030 H   0  0  0  0  0  0  0  0  0  0  0  0
    2.6304   -0.3940    0.8820 H   0  0  0  0  0  0  0  0  0  0  0  0
    2.6301   -0.3996   -0.8783 H   0  0  0  0  0  0  0  0  0  0  0  0
    0.4605    2.3868   -0.0005 H   0  0  0  0  0  0  0  0  0  0  0  0
   -2.0965    1.8966   -0.0002 H   0  0  0  0  0  0  0  0  0  0  0  0
   -2.5749   -0.6853    0.0005 H   0  0  0  0  0  0  0  0  0  0  0  0
  1  2  1  0  0  0  0
  2  3  2  0  0  0  0
  3  4  4  0  0  0  0
  4  5  2  0  0  0  0
  2  6  1  0  0  0  0
  5  6  1  0  0  0  0
  1  7  1  0  0  0  0
  1  8  1  0  0  0  0
  1  9  1  0  0  0  0
  3 10  1  0  0  0  0
  4 11  1  0  0  0  0
  5 12  1  0  0  0  0
M  END
