 xtb: 6.7.1 (edcfbbe)
          04032521163D

 19 19  0     0  0            999 V2000
    2.4972    0.0480    0.0431 C   0  0  0  0  0  0  0  0  0  0  0  0
    0.9987    0.0755    0.0103 C   0  0  0  0  0  0  0  0  0  0  0  0
    0.3059    1.2019   -0.0815 C   0  0  0  0  0  0  0  0  0  0  0  0
   -1.1910    1.2758   -0.1074 C   0  0  0  0  0  0  0  0  0  0  0  0
   -1.8252   -0.0333    0.3543 C   0  0  0  0  0  0  0  0  0  0  0  0
   -1.1336   -1.2054   -0.3321 C   0  0  0  0  0  0  0  0  0  0  0  0
    0.3269   -1.2677    0.1057 C   0  0  0  0  0  0  0  0  0  0  0  0
    2.8440   -0.4720    0.9353 H   0  0  0  0  0  0  0  0  0  0  0  0
    2.9072    1.0543    0.0414 H   0  0  0  0  0  0  0  0  0  0  0  0
    2.8836   -0.4878   -0.8235 H   0  0  0  0  0  0  0  0  0  0  0  0
    0.8226    2.1502   -0.1582 H   0  0  0  0  0  0  0  0  0  0  0  0
   -1.5256    2.1016    0.5258 H   0  0  0  0  0  0  0  0  0  0  0  0
   -1.5154    1.5039   -1.1288 H   0  0  0  0  0  0  0  0  0  0  0  0
   -1.7092   -0.1324    1.4356 H   0  0  0  0  0  0  0  0  0  0  0  0
   -2.8928   -0.0320    0.1273 H   0  0  0  0  0  0  0  0  0  0  0  0
   -1.6363   -2.1427   -0.0866 H   0  0  0  0  0  0  0  0  0  0  0  0
   -1.1839   -1.0672   -1.4142 H   0  0  0  0  0  0  0  0  0  0  0  0
    0.3851   -1.6155    1.1426 H   0  0  0  0  0  0  0  0  0  0  0  0
    0.8721   -1.9903   -0.5064 H   0  0  0  0  0  0  0  0  0  0  0  0
  1  2  1  0  0  0  0
  2  3  2  0  0  0  0
  3  4  1  0  0  0  0
  4  5  1  0  0  0  0
  5  6  1  0  0  0  0
  2  7  1  0  0  0  0
  6  7  1  0  0  0  0
  1  8  1  0  0  0  0
  1  9  1  0  0  0  0
  1 10  1  0  0  0  0
  3 11  1  0  0  0  0
  4 12  1  0  0  0  0
  4 13  1  0  0  0  0
  5 14  1  0  0  0  0
  5 15  1  0  0  0  0
  6 16  1  0  0  0  0
  6 17  1  0  0  0  0
  7 18  1  0  0  0  0
  7 19  1  0  0  0  0
M  END
