 xtb: 6.7.1 (edcfbbe)
          04062507163D

 24 24  0     0  0            999 V2000
   -1.3764    0.6865    1.5310 C   0  0  0  0  0  0  0  0  0  0  0  0
   -1.9904    0.4828    0.2385 N   0  0  0  0  0  0  0  0  0  0  0  0
   -3.1763    1.2728   -0.0126 C   0  0  0  0  0  0  0  0  0  0  0  0
   -1.6369   -0.4751   -0.6397 C   0  0  0  0  0  0  0  0  0  0  0  0
   -2.3615   -0.8189   -1.5798 O   0  0  0  0  0  0  0  0  0  0  0  0
   -0.4398   -1.1334   -0.4204 N   0  0  0  0  0  0  0  0  0  0  0  0
    0.8025   -0.5515   -0.1275 C   0  0  0  0  0  0  0  0  0  0  0  0
    1.0452    0.8077   -0.3060 C   0  0  0  0  0  0  0  0  0  0  0  0
    2.2874    1.3357   -0.0038 C   0  0  0  0  0  0  0  0  0  0  0  0
    3.3028    0.5199    0.4648 C   0  0  0  0  0  0  0  0  0  0  0  0
    3.0724   -0.8377    0.6186 C   0  0  0  0  0  0  0  0  0  0  0  0
    1.8331   -1.3733    0.3246 C   0  0  0  0  0  0  0  0  0  0  0  0
   -0.7558    1.5852    1.5361 H   0  0  0  0  0  0  0  0  0  0  0  0
   -0.7621   -0.1680    1.7994 H   0  0  0  0  0  0  0  0  0  0  0  0
   -2.1674    0.8007    2.2727 H   0  0  0  0  0  0  0  0  0  0  0  0
   -3.9682    1.0130    0.6925 H   0  0  0  0  0  0  0  0  0  0  0  0
   -3.5220    1.0679   -1.0235 H   0  0  0  0  0  0  0  0  0  0  0  0
   -2.9353    2.3312    0.0893 H   0  0  0  0  0  0  0  0  0  0  0  0
   -0.3872   -2.0093   -0.9244 H   0  0  0  0  0  0  0  0  0  0  0  0
    0.2679    1.4401   -0.7068 H   0  0  0  0  0  0  0  0  0  0  0  0
    2.4642    2.3908   -0.1480 H   0  0  0  0  0  0  0  0  0  0  0  0
    4.2704    0.9363    0.6974 H   0  0  0  0  0  0  0  0  0  0  0  0
    3.8622   -1.4841    0.9698 H   0  0  0  0  0  0  0  0  0  0  0  0
    1.6540   -2.4313    0.4416 H   0  0  0  0  0  0  0  0  0  0  0  0
  1  2  1  0  0  0  0
  2  3  1  0  0  0  0
  2  4  4  0  0  0  0
  4  5  2  0  0  0  0
  4  6  1  0  0  0  0
  6  7  1  0  0  0  0
  7  8  4  0  0  0  0
  8  9  4  0  0  0  0
  9 10  4  0  0  0  0
 10 11  4  0  0  0  0
  7 12  4  0  0  0  0
 11 12  4  0  0  0  0
  1 13  1  0  0  0  0
  1 14  1  0  0  0  0
  1 15  1  0  0  0  0
  3 16  1  0  0  0  0
  3 17  1  0  0  0  0
  3 18  1  0  0  0  0
  6 19  1  0  0  0  0
  8 20  1  0  0  0  0
  9 21  1  0  0  0  0
 10 22  1  0  0  0  0
 11 23  1  0  0  0  0
 12 24  1  0  0  0  0
M  END
