 xtb: 6.7.1 (edcfbbe)
          04042518303D

 13 13  0     0  0            999 V2000
   -1.1216   -1.3624   -0.4357 C   0  0  0  0  0  0  0  0  0  0  0  0
   -0.6827   -0.1810    0.4327 C   0  0  0  0  0  0  0  0  0  0  0  0
   -1.5553    1.0426    0.2172 C   0  0  0  0  0  0  0  0  0  0  0  0
    0.7105    0.1016    0.0513 N   0  0  0  0  0  0  0  0  0  0  0  0
    0.9257    0.8739   -0.8569 O   0  0  0  0  0  0  0  0  0  0  0  0
    1.5837   -0.4986    0.6486 O   0  0  0  0  0  0  0  0  0  0  0  0
   -0.4623   -2.2141   -0.2850 H   0  0  0  0  0  0  0  0  0  0  0  0
   -2.1319   -1.6495   -0.1627 H   0  0  0  0  0  0  0  0  0  0  0  0
   -1.1063   -1.0814   -1.4862 H   0  0  0  0  0  0  0  0  0  0  0  0
   -0.6529   -0.4845    1.4824 H   0  0  0  0  0  0  0  0  0  0  0  0
   -2.5804    0.8042    0.4809 H   0  0  0  0  0  0  0  0  0  0  0  0
   -1.5207    1.3519   -0.8240 H   0  0  0  0  0  0  0  0  0  0  0  0
   -1.2186    1.8713    0.8348 H   0  0  0  0  0  0  0  0  0  0  0  0
  1  2  1  0  0  0  0
  2  3  1  0  0  0  0
  2  4  1  0  0  0  0
  4  5  4  0  0  0  0
  4  6  4  0  0  0  0
  5  6  1  0  0  0  0
  1  7  1  0  0  0  0
  1  8  1  0  0  0  0
  1  9  1  0  0  0  0
  2 10  1  0  0  0  0
  3 11  1  0  0  0  0
  3 12  1  0  0  0  0
  3 13  1  0  0  0  0
M  END
