 xtb: 6.7.1 (edcfbbe)
          04062518003D

 24 24  0     0  0            999 V2000
   -2.2882   -0.8787    0.7933 C   0  0  0  0  0  0  0  0  0  0  0  0
   -0.8327   -0.3970    0.7385 C   0  0  0  0  0  0  0  0  0  0  0  0
   -0.5269   -0.1018    1.7512 H   0  0  0  0  0  0  0  0  0  0  0  0
   -0.6379    0.8026   -0.2043 C   0  0  0  0  0  0  0  0  0  0  0  0
   -0.8230    0.4671   -1.2345 H   0  0  0  0  0  0  0  0  0  0  0  0
    0.8191    1.2962   -0.1029 C   0  0  0  0  0  0  0  0  0  0  0  0
    0.8431    2.1005    0.6398 H   0  0  0  0  0  0  0  0  0  0  0  0
    1.7614    0.1707    0.3765 C   0  0  0  0  0  0  0  0  0  0  0  0
    2.7459    0.3626   -0.0710 H   0  0  0  0  0  0  0  0  0  0  0  0
    1.2520   -1.1748   -0.1679 C   0  0  0  0  0  0  0  0  0  0  0  0
    1.8984   -1.9976    0.1764 H   0  0  0  0  0  0  0  0  0  0  0  0
   -0.0335   -1.4977    0.3013 O   0  0  0  0  0  0  0  0  0  0  0  0
    1.2833   -1.0777   -1.5613 O   0  0  0  0  0  0  0  0  0  0  0  0
    1.8282    0.1836    1.7778 O   0  0  0  0  0  0  0  0  0  0  0  0
    1.2736    1.8588   -1.3035 O   0  0  0  0  0  0  0  0  0  0  0  0
   -1.4847    1.8750    0.1249 O   0  0  0  0  0  0  0  0  0  0  0  0
   -2.8646   -1.0581   -0.4762 O   0  0  0  0  0  0  0  0  0  0  0  0
   -2.8871   -0.1231    1.3036 H   0  0  0  0  0  0  0  0  0  0  0  0
   -2.3162   -1.8072    1.3736 H   0  0  0  0  0  0  0  0  0  0  0  0
    1.0991   -1.9395   -1.9649 H   0  0  0  0  0  0  0  0  0  0  0  0
    2.5755   -0.3508    2.0841 H   0  0  0  0  0  0  0  0  0  0  0  0
    1.2970    1.1648   -1.9824 H   0  0  0  0  0  0  0  0  0  0  0  0
   -2.3762    1.6890   -0.2030 H   0  0  0  0  0  0  0  0  0  0  0  0
   -2.4433   -1.8160   -0.9034 H   0  0  0  0  0  0  0  0  0  0  0  0
  1  2  1  0  0  0  0
  2  3  1  0  0  0  0
  2  4  1  0  0  0  0
  4  5  1  0  0  0  0
  4  6  1  0  0  0  0
  6  7  1  0  0  0  0
  6  8  1  0  0  0  0
  8  9  1  0  0  0  0
  8 10  1  0  0  0  0
 10 11  1  0  0  0  0
  2 12  1  0  0  0  0
 10 12  1  0  0  0  0
 10 13  1  0  0  0  0
  8 14  1  0  0  0  0
  6 15  1  0  0  0  0
  4 16  1  0  0  0  0
  1 17  1  0  0  0  0
  1 18  1  0  0  0  0
  1 19  1  0  0  0  0
 13 20  1  0  0  0  0
 14 21  1  0  0  0  0
 15 22  1  0  0  0  0
 16 23  1  0  0  0  0
 17 24  1  0  0  0  0
M  END
