18
 xtb: 6.7.1 (edcfbbe)
C           -3.40152487619920        0.60587737662281        0.00090857046685
O           -1.96135252585857        0.77763913546534        0.00126459935534
C           -1.23821452634711       -0.35685034523735       -0.00064523517227
O           -1.74496406105412       -1.46895807909139       -0.00227547317688
C            0.22268015076746       -0.10645813325152       -0.00016076056152
C            1.08159747166061       -1.21120472337945        0.00033580092740
C            2.45745088571833       -1.02315607044401        0.00057348101061
C            2.98519077767364        0.26686217106317        0.00023754695190
C            2.13328407011480        1.36945696383504       -0.00028532902995
C            0.75547634297057        1.18828059604883       -0.00042899760855
H           -3.81006419752231        1.61557103596503        0.00600917512353
H           -3.71602314284451        0.06114161970425        0.89411933206147
H           -3.71640548424787        0.07005845592622       -0.89757242109210
H            0.66485880083541       -2.21224190313865        0.00054627490588
H            3.11991431616064       -1.88236895534676        0.00100492803359
H            4.06059029306199        0.41286747033626        0.00037668205155
H            2.54339571477687        2.37389439542949       -0.00059651855012
H            0.09817950333587        2.04935746981851       -0.00086979678402
