 xtb: 6.7.1 (edcfbbe)
          04062508313D

 24 24  0     0  0            999 V2000
   -2.4769    0.4624    1.3931 C   0  0  0  0  0  0  0  0  0  0  0  0
   -1.2380    0.3814    0.6820 O   0  0  0  0  0  0  0  0  0  0  0  0
   -1.1914   -0.3144   -0.4422 C   0  0  0  0  0  0  0  0  0  0  0  0
   -2.1533   -0.9049   -0.8982 O   0  0  0  0  0  0  0  0  0  0  0  0
    0.1683   -0.3485   -1.1048 C   0  0  0  0  0  0  0  0  0  0  0  0
    1.0673   -1.3800   -0.3991 C   0  0  0  0  0  0  0  0  0  0  0  0
    1.6067   -0.8639    0.9300 C   0  0  0  0  0  0  0  0  0  0  0  0
    2.3794    0.4335    0.7175 C   0  0  0  0  0  0  0  0  0  0  0  0
    1.4596    1.4937    0.1220 C   0  0  0  0  0  0  0  0  0  0  0  0
    0.8657    1.0148   -1.2000 C   0  0  0  0  0  0  0  0  0  0  0  0
   -2.9160    1.4435    1.2153 H   0  0  0  0  0  0  0  0  0  0  0  0
   -2.2451    0.3368    2.4480 H   0  0  0  0  0  0  0  0  0  0  0  0
   -3.1559   -0.3175    1.0469 H   0  0  0  0  0  0  0  0  0  0  0  0
   -0.0325   -0.7132   -2.1185 H   0  0  0  0  0  0  0  0  0  0  0  0
    0.5060   -2.3056   -0.2517 H   0  0  0  0  0  0  0  0  0  0  0  0
    1.9058   -1.5984   -1.0629 H   0  0  0  0  0  0  0  0  0  0  0  0
    0.7819   -0.6832    1.6207 H   0  0  0  0  0  0  0  0  0  0  0  0
    2.2567   -1.6217    1.3707 H   0  0  0  0  0  0  0  0  0  0  0  0
    2.7844    0.7857    1.6673 H   0  0  0  0  0  0  0  0  0  0  0  0
    3.2165    0.2509    0.0401 H   0  0  0  0  0  0  0  0  0  0  0  0
    0.6596    1.7138    0.8281 H   0  0  0  0  0  0  0  0  0  0  0  0
    2.0171    2.4152   -0.0552 H   0  0  0  0  0  0  0  0  0  0  0  0
    0.1610    1.7561   -1.5824 H   0  0  0  0  0  0  0  0  0  0  0  0
    1.6716    0.9135   -1.9300 H   0  0  0  0  0  0  0  0  0  0  0  0
  1  2  1  0  0  0  0
  2  3  1  0  0  0  0
  3  4  2  0  0  0  0
  3  5  1  0  0  0  0
  5  6  1  0  0  0  0
  6  7  1  0  0  0  0
  7  8  1  0  0  0  0
  8  9  1  0  0  0  0
  5 10  1  0  0  0  0
  9 10  1  0  0  0  0
  1 11  1  0  0  0  0
  1 12  1  0  0  0  0
  1 13  1  0  0  0  0
  5 14  1  0  0  0  0
  6 15  1  0  0  0  0
  6 16  1  0  0  0  0
  7 17  1  0  0  0  0
  7 18  1  0  0  0  0
  8 19  1  0  0  0  0
  8 20  1  0  0  0  0
  9 21  1  0  0  0  0
  9 22  1  0  0  0  0
 10 23  1  0  0  0  0
 10 24  1  0  0  0  0
M  END
