 xtb: 6.7.1 (edcfbbe)
          04052509163D

 22 23  0     0  0            999 V2000
   -3.5265    0.0017   -0.0021 C   0  0  0  0  0  0  0  0  0  0  0  0
   -2.8416    0.8535    0.8477 C   0  0  0  0  0  0  0  0  0  0  0  0
   -1.4576    0.8447    0.8408 C   0  0  0  0  0  0  0  0  0  0  0  0
   -0.7400   -0.0002   -0.0001 C   0  0  0  0  0  0  0  0  0  0  0  0
   -1.4575   -0.8442   -0.8420 C   0  0  0  0  0  0  0  0  0  0  0  0
   -2.8415   -0.8511   -0.8509 C   0  0  0  0  0  0  0  0  0  0  0  0
   -0.5785   -1.9040   -1.8970 Cl  0  0  0  0  0  0  0  0  0  0  0  0
    0.7401   -0.0011    0.0009 C   0  0  0  0  0  0  0  0  0  0  0  0
    1.4585    0.8430   -0.8401 C   0  0  0  0  0  0  0  0  0  0  0  0
    2.8425    0.8502   -0.8471 C   0  0  0  0  0  0  0  0  0  0  0  0
    3.5265   -0.0025    0.0026 C   0  0  0  0  0  0  0  0  0  0  0  0
    2.8406   -0.8545    0.8515 C   0  0  0  0  0  0  0  0  0  0  0  0
    1.4566   -0.8459    0.8427 C   0  0  0  0  0  0  0  0  0  0  0  0
    0.5764   -1.9047    1.8978 Cl  0  0  0  0  0  0  0  0  0  0  0  0
    0.5808    1.9027   -1.8963 Cl  0  0  0  0  0  0  0  0  0  0  0  0
   -0.5787    1.9033    1.8972 Cl  0  0  0  0  0  0  0  0  0  0  0  0
   -4.6040    0.0025   -0.0030 H   0  0  0  0  0  0  0  0  0  0  0  0
   -3.3688    1.5193    1.5104 H   0  0  0  0  0  0  0  0  0  0  0  0
   -3.3686   -1.5161   -1.5144 H   0  0  0  0  0  0  0  0  0  0  0  0
    3.3704    1.5153   -1.5098 H   0  0  0  0  0  0  0  0  0  0  0  0
    4.6040   -0.0031    0.0033 H   0  0  0  0  0  0  0  0  0  0  0  0
    3.3670   -1.5202    1.5149 H   0  0  0  0  0  0  0  0  0  0  0  0
  1  2  4  0  0  0  0
  2  3  4  0  0  0  0
  3  4  4  0  0  0  0
  4  5  4  0  0  0  0
  1  6  4  0  0  0  0
  5  6  4  0  0  0  0
  5  7  1  0  0  0  0
  4  8  1  0  0  0  0
  8  9  4  0  0  0  0
  9 10  4  0  0  0  0
 10 11  4  0  0  0  0
 11 12  4  0  0  0  0
  8 13  4  0  0  0  0
 12 13  4  0  0  0  0
 13 14  1  0  0  0  0
  9 15  1  0  0  0  0
  3 16  1  0  0  0  0
  1 17  1  0  0  0  0
  2 18  1  0  0  0  0
  6 19  1  0  0  0  0
 10 20  1  0  0  0  0
 11 21  1  0  0  0  0
 12 22  1  0  0  0  0
M  END
