12
CONF2
C -1.2557241937 -0.7356371655 -0.1246154776
C -0.0003836163 -0.0341547002 0.3674359023
C 1.2672204532 -0.6941855198 -0.1376668252
O 0.0314060793 1.3383787809 -0.1014390804
H -1.2719621839 -0.7660310163 -1.2197958937
H -1.2905327379 -1.7631799865 0.2520597602
H -2.1550045501 -0.2165565330 0.2247962672
H 0.0058200049 -0.0293876109 1.4678014530
H 1.2805096859 -0.7058199737 -1.2332904929
H 1.3208696252 -1.7269119353 0.2186816183
H 2.1545581528 -0.1614585839 0.2179735444
H -0.7867531429 1.7595891460 0.1925778464
12
CONF1
C -1.2647998694 -0.7191386630 -0.0942801015
C -0.0000003234 -0.0104052619 0.3638975444
C 1.2599424058 -0.7287218525 -0.0927007780
O 0.0055863809 1.3656015750 -0.0946372889
H -2.1561038064 -0.1804336581 0.2409495319
H -1.2865678285 -0.7867973028 -1.1884601895
H -1.3028951838 -1.7354254197 0.3107699153
H -0.0004165411 0.0695981692 1.4569435283
H 2.1549272741 -0.1981708704 0.2456514179
H 1.2836631562 -0.7942178372 -1.1869596609
H 1.2886225761 -1.7461125796 0.3102519678
H 0.0063028686 1.3377529879 -1.0614616163
