 xtb: 6.7.1 (edcfbbe)
          04042519583D

 16 16  0     0  0            999 V2000
   -2.3024    0.0945    0.0415 C   0  0  0  0  0  0  0  0  0  0  0  0
   -1.6599    1.2990   -0.1982 C   0  0  0  0  0  0  0  0  0  0  0  0
   -0.2796    1.3515   -0.2459 C   0  0  0  0  0  0  0  0  0  0  0  0
    0.4748    0.1990   -0.0548 C   0  0  0  0  0  0  0  0  0  0  0  0
   -0.1729   -1.0031    0.1842 C   0  0  0  0  0  0  0  0  0  0  0  0
   -1.5560   -1.0545    0.2324 C   0  0  0  0  0  0  0  0  0  0  0  0
    1.9792    0.2847   -0.1151 C   0  0  0  0  0  0  0  0  0  0  0  0
    2.5719   -0.9705    0.1385 O   0  0  0  0  0  0  0  0  0  0  0  0
   -3.3806    0.0543    0.0790 H   0  0  0  0  0  0  0  0  0  0  0  0
   -2.2372    2.1992   -0.3477 H   0  0  0  0  0  0  0  0  0  0  0  0
    0.2208    2.2908   -0.4324 H   0  0  0  0  0  0  0  0  0  0  0  0
    0.4168   -1.8943    0.3324 H   0  0  0  0  0  0  0  0  0  0  0  0
   -2.0495   -1.9965    0.4197 H   0  0  0  0  0  0  0  0  0  0  0  0
    2.2683    0.6487   -1.1128 H   0  0  0  0  0  0  0  0  0  0  0  0
    2.3177    1.0240    0.6264 H   0  0  0  0  0  0  0  0  0  0  0  0
    3.5326   -0.8809    0.0938 H   0  0  0  0  0  0  0  0  0  0  0  0
  1  2  4  0  0  0  0
  2  3  4  0  0  0  0
  3  4  4  0  0  0  0
  4  5  4  0  0  0  0
  1  6  4  0  0  0  0
  5  6  4  0  0  0  0
  4  7  1  0  0  0  0
  7  8  1  0  0  0  0
  1  9  1  0  0  0  0
  2 10  1  0  0  0  0
  3 11  1  0  0  0  0
  5 12  1  0  0  0  0
  6 13  1  0  0  0  0
  7 14  1  0  0  0  0
  7 15  1  0  0  0  0
  8 16  1  0  0  0  0
M  END
