22
 xtb: 6.7.1 (edcfbbe)
C            0.74058002775944        0.00009549510305       -0.00012260151926
C            1.44974583324637        0.85777993894383       -0.84132648939462
C            2.84603904264280        0.86726687131294       -0.84933048894659
C            3.54349773368163        0.00018380183250       -0.00033189166839
C            2.84622200740558       -0.86693768536668        0.84878118967070
C            1.44992864799791       -0.85754011164533        0.84098196874435
Cl           0.56203693227758       -1.91911551005615        1.88439386247742
Cl           3.70534216903751       -1.93733474283688        1.89708678422025
Cl           5.26993575666681        0.00023953152411       -0.00048200713739
Cl           3.70495742169532        1.93770884056066       -1.89775876638126
Cl           0.56161375341656        1.91930015656224       -1.88459010490918
C           -0.74058559579087        0.00001203173131       -0.00000134434012
C           -1.44983642162349        0.85760924184084        0.84122241398933
C           -2.84612449427055        0.86688040953912        0.84932873181924
C           -3.54350369302803       -0.00034926977074        0.00039411497736
C           -2.84614755602487       -0.86736212692518       -0.84874362252579
C           -1.44984945723935       -0.85774419730305       -0.84105208392891
Cl          -0.56180634496816       -1.91917425496373       -1.88448735373594
Cl          -3.70529678977718       -1.93786782714314       -1.89691479013726
Cl          -5.26994199370656       -0.00074638698153        0.00056140194530
Cl          -3.70501139607083        1.93726763905377        1.89784021486571
Cl          -0.56185731240705        1.91931205788916        1.88442680101486
