24
 xtb: 6.7.1 (edcfbbe)
C           -2.14494491678982       -0.91048587725848       -0.29834036123505
C           -1.19348046500858       -0.33263531133782        0.74232448903052
H           -1.76885098447653       -0.34873514309716        1.67585448570199
C           -0.76419601384887        1.11828903798396        0.52957769402662
H           -1.61955344722583        1.68322585586377        0.13452801535005
C            0.43386730662494        1.28825675736680       -0.42100017886156
H            0.83622464116521        2.29832051819123       -0.27225688436968
C            1.55828405370162        0.30272918339292       -0.05456060490897
H            2.29782586981410        0.28801656354525       -0.86056266718020
C            1.07161476782875       -1.13173777244739        0.18007346750579
H            1.84555237368584       -1.68089790580912        0.72641501100526
O           -0.06213422842470       -1.19711372399853        1.03070065713246
O            0.85334025850271       -1.76504822119686       -1.08199489268440
O            2.23906536895232        0.74708333594070        1.12725040036959
O            0.05333504770040        1.20532046974069       -1.79090648659783
O           -0.40310749060807        1.61068573763191        1.83893380904349
O           -1.67969220931427       -0.90790644920994       -1.65660293484199
H           -3.06058115172528       -0.31113998024057       -0.28059142024808
H           -2.39788902291743       -1.93423215171579        0.00644105487970
H            0.82275455405505       -2.72023072473853       -0.92506671105725
H            1.55075090817894        0.98269780703395        1.77237617377284
H           -0.61653391696537        0.49243800991092       -1.87725518201612
H           -0.20437634108900        2.55338098771120        1.75050801954076
H           -0.86131722969688       -1.44623873868892       -1.66196349102553
