 xtb: 6.7.1 (edcfbbe)
          04062518003D

 24 24  0     0  0            999 V2000
   -2.0871   -1.0429   -0.2154 C   0  0  0  0  0  0  0  0  0  0  0  0
   -1.1055   -0.4193    0.8008 C   0  0  0  0  0  0  0  0  0  0  0  0
   -1.5991   -0.4304    1.7797 H   0  0  0  0  0  0  0  0  0  0  0  0
   -0.7738    1.0519    0.4935 C   0  0  0  0  0  0  0  0  0  0  0  0
   -1.6588    1.4829    0.0037 H   0  0  0  0  0  0  0  0  0  0  0  0
    0.4544    1.2621   -0.4251 C   0  0  0  0  0  0  0  0  0  0  0  0
    0.8201    2.2892   -0.2459 H   0  0  0  0  0  0  0  0  0  0  0  0
    1.5970    0.3181   -0.0185 C   0  0  0  0  0  0  0  0  0  0  0  0
    2.3626    0.3447   -0.7996 H   0  0  0  0  0  0  0  0  0  0  0  0
    1.1003   -1.1324    0.1120 C   0  0  0  0  0  0  0  0  0  0  0  0
    1.9043   -1.7170    0.5817 H   0  0  0  0  0  0  0  0  0  0  0  0
    0.0409   -1.2358    1.0292 O   0  0  0  0  0  0  0  0  0  0  0  0
    0.7740   -1.6338   -1.1472 O   0  0  0  0  0  0  0  0  0  0  0  0
    2.2081    0.7330    1.1730 O   0  0  0  0  0  0  0  0  0  0  0  0
    0.2064    1.0766   -1.7903 O   0  0  0  0  0  0  0  0  0  0  0  0
   -0.5418    1.6747    1.7418 O   0  0  0  0  0  0  0  0  0  0  0  0
   -1.8806   -0.6849   -1.5545 O   0  0  0  0  0  0  0  0  0  0  0  0
   -3.0972   -0.7035    0.0255 H   0  0  0  0  0  0  0  0  0  0  0  0
   -2.0449   -2.1328   -0.0857 H   0  0  0  0  0  0  0  0  0  0  0  0
    0.7279   -2.6017   -1.1195 H   0  0  0  0  0  0  0  0  0  0  0  0
    1.5357    0.7631    1.8750 H   0  0  0  0  0  0  0  0  0  0  0  0
   -0.5490    1.6140   -2.0705 H   0  0  0  0  0  0  0  0  0  0  0  0
   -0.5503    2.6376    1.6434 H   0  0  0  0  0  0  0  0  0  0  0  0
   -0.9541   -0.8799   -1.7945 H   0  0  0  0  0  0  0  0  0  0  0  0
  1  2  1  0  0  0  0
  2  3  1  0  0  0  0
  2  4  1  0  0  0  0
  4  5  1  0  0  0  0
  4  6  1  0  0  0  0
  6  7  1  0  0  0  0
  6  8  1  0  0  0  0
  8  9  1  0  0  0  0
  8 10  1  0  0  0  0
 10 11  1  0  0  0  0
  2 12  1  0  0  0  0
 10 12  1  0  0  0  0
 10 13  1  0  0  0  0
  8 14  1  0  0  0  0
  6 15  1  0  0  0  0
  4 16  1  0  0  0  0
  1 17  1  0  0  0  0
  1 18  1  0  0  0  0
  1 19  1  0  0  0  0
 13 20  1  0  0  0  0
 14 21  1  0  0  0  0
 15 22  1  0  0  0  0
 16 23  1  0  0  0  0
 17 24  1  0  0  0  0
M  END
