 xtb: 6.7.1 (edcfbbe)
          04032521123D

 10  9  0     0  0            999 V2000
   -1.2046   -0.2549    0.0160 C   0  0  0  0  0  0  0  0  0  0  0  0
    0.0000    0.5472   -0.0856 N   0  0  0  0  0  0  0  0  0  0  0  0
    1.2048   -0.2546    0.0161 C   0  0  0  0  0  0  0  0  0  0  0  0
   -1.2342   -0.9451   -0.8272 H   0  0  0  0  0  0  0  0  0  0  0  0
   -2.0720    0.3991   -0.0372 H   0  0  0  0  0  0  0  0  0  0  0  0
   -1.2590   -0.8442    0.9445 H   0  0  0  0  0  0  0  0  0  0  0  0
   -0.0001    1.2423    0.6551 H   0  0  0  0  0  0  0  0  0  0  0  0
    2.0720    0.3996   -0.0370 H   0  0  0  0  0  0  0  0  0  0  0  0
    1.2346   -0.9448   -0.8272 H   0  0  0  0  0  0  0  0  0  0  0  0
    1.2593   -0.8439    0.9446 H   0  0  0  0  0  0  0  0  0  0  0  0
  1  2  1  0  0  0  0
  2  3  1  0  0  0  0
  1  4  1  0  0  0  0
  1  5  1  0  0  0  0
  1  6  1  0  0  0  0
  2  7  1  0  0  0  0
  3  8  1  0  0  0  0
  3  9  1  0  0  0  0
  3 10  1  0  0  0  0
M  END
