 xtb: 6.7.1 (edcfbbe)
          04042520103D

 15 15  0     0  0            999 V2000
   -0.4214   -1.0416   -0.0000 C   0  0  0  0  0  0  0  0  0  0  0  0
    0.9439   -1.2075   -0.0000 C   0  0  0  0  0  0  0  0  0  0  0  0
    1.7826   -0.0897    0.0000 C   0  0  0  0  0  0  0  0  0  0  0  0
    1.2250    1.1940    0.0001 C   0  0  0  0  0  0  0  0  0  0  0  0
   -0.1396    1.3548    0.0001 C   0  0  0  0  0  0  0  0  0  0  0  0
   -0.9862    0.2394    0.0001 C   0  0  0  0  0  0  0  0  0  0  0  0
   -2.4249    0.4067    0.0001 C   0  0  0  0  0  0  0  0  0  0  0  0
   -3.2485   -0.4916    0.0000 O   0  0  0  0  0  0  0  0  0  0  0  0
    3.1212   -0.1910    0.0000 O   0  0  0  0  0  0  0  0  0  0  0  0
   -1.0855   -1.8929   -0.0000 H   0  0  0  0  0  0  0  0  0  0  0  0
    1.3676   -2.2005   -0.0001 H   0  0  0  0  0  0  0  0  0  0  0  0
    1.8916    2.0412    0.0001 H   0  0  0  0  0  0  0  0  0  0  0  0
   -0.5676    2.3455    0.0001 H   0  0  0  0  0  0  0  0  0  0  0  0
   -2.7637    1.4600    0.0001 H   0  0  0  0  0  0  0  0  0  0  0  0
    3.4118   -1.1176   -0.0000 H   0  0  0  0  0  0  0  0  0  0  0  0
  1  2  4  0  0  0  0
  2  3  4  0  0  0  0
  3  4  4  0  0  0  0
  4  5  2  0  0  0  0
  1  6  4  0  0  0  0
  5  6  4  0  0  0  0
  6  7  1  0  0  0  0
  7  8  2  0  0  0  0
  3  9  1  0  0  0  0
  1 10  1  0  0  0  0
  2 11  1  0  0  0  0
  4 12  1  0  0  0  0
  5 13  1  0  0  0  0
  7 14  1  0  0  0  0
  9 15  1  0  0  0  0
M  END
