 xtb: 6.7.1 (edcfbbe)
          04062505073D

 29 29  0     0  0            999 V2000
   -3.3233    0.3153    0.1798 C   0  0  0  0  0  0  0  0  0  0  0  0
   -2.1776   -0.5513   -0.3377 C   0  0  0  0  0  0  0  0  0  0  0  0
   -2.5974   -1.3082   -1.0071 H   0  0  0  0  0  0  0  0  0  0  0  0
   -1.4568   -1.2488    0.8279 C   0  0  0  0  0  0  0  0  0  0  0  0
    0.0477   -1.3488    0.5912 C   0  0  0  0  0  0  0  0  0  0  0  0
    0.6393    0.0591    0.5741 C   0  0  0  0  0  0  0  0  0  0  0  0
    0.5770    0.4753    1.5878 H   0  0  0  0  0  0  0  0  0  0  0  0
   -0.1737    0.9816   -0.3056 C   0  0  0  0  0  0  0  0  0  0  0  0
    0.0083    2.1859   -0.3213 O   0  0  0  0  0  0  0  0  0  0  0  0
   -1.1980    0.3029   -1.1661 C   0  0  0  0  0  0  0  0  0  0  0  0
    2.1295    0.1533    0.1620 C   0  0  0  0  0  0  0  0  0  0  0  0
    3.0147   -0.6573    1.1050 C   0  0  0  0  0  0  0  0  0  0  0  0
    2.3664   -0.2701   -1.2862 C   0  0  0  0  0  0  0  0  0  0  0  0
   -3.9917   -0.2745    0.8025 H   0  0  0  0  0  0  0  0  0  0  0  0
   -2.9344    1.1419    0.7721 H   0  0  0  0  0  0  0  0  0  0  0  0
   -3.8985    0.7284   -0.6455 H   0  0  0  0  0  0  0  0  0  0  0  0
   -1.6214   -0.6785    1.7453 H   0  0  0  0  0  0  0  0  0  0  0  0
   -1.8785   -2.2427    0.9793 H   0  0  0  0  0  0  0  0  0  0  0  0
    0.5050   -1.9249    1.3953 H   0  0  0  0  0  0  0  0  0  0  0  0
    0.2399   -1.8674   -0.3471 H   0  0  0  0  0  0  0  0  0  0  0  0
   -1.7396    1.0500   -1.7478 H   0  0  0  0  0  0  0  0  0  0  0  0
   -0.6516   -0.3432   -1.8555 H   0  0  0  0  0  0  0  0  0  0  0  0
    2.4007    1.2124    0.2503 H   0  0  0  0  0  0  0  0  0  0  0  0
    2.8272   -0.3860    2.1409 H   0  0  0  0  0  0  0  0  0  0  0  0
    4.0615   -0.4631    0.8849 H   0  0  0  0  0  0  0  0  0  0  0  0
    2.8337   -1.7216    0.9825 H   0  0  0  0  0  0  0  0  0  0  0  0
    2.0995   -1.3121   -1.4412 H   0  0  0  0  0  0  0  0  0  0  0  0
    3.4190   -0.1525   -1.5324 H   0  0  0  0  0  0  0  0  0  0  0  0
    1.7894    0.3510   -1.9683 H   0  0  0  0  0  0  0  0  0  0  0  0
  1  2  1  0  0  0  0
  2  3  1  0  0  0  0
  2  4  1  0  0  0  0
  4  5  1  0  0  0  0
  5  6  1  0  0  0  0
  6  7  1  0  0  0  0
  6  8  1  0  0  0  0
  8  9  2  0  0  0  0
  2 10  1  0  0  0  0
  8 10  1  0  0  0  0
  6 11  1  0  0  0  0
 11 12  1  0  0  0  0
 11 13  1  0  0  0  0
  1 14  1  0  0  0  0
  1 15  1  0  0  0  0
  1 16  1  0  0  0  0
  4 17  1  0  0  0  0
  4 18  1  0  0  0  0
  5 19  1  0  0  0  0
  5 20  1  0  0  0  0
 10 21  1  0  0  0  0
 10 22  1  0  0  0  0
 11 23  1  0  0  0  0
 12 24  1  0  0  0  0
 12 25  1  0  0  0  0
 12 26  1  0  0  0  0
 13 27  1  0  0  0  0
 13 28  1  0  0  0  0
 13 29  1  0  0  0  0
M  END
