 xtb: 6.7.1 (edcfbbe)
          04062518003D

 24 24  0     0  0            999 V2000
   -2.0435   -0.5414   -0.6875 C   0  0  0  0  0  0  0  0  0  0  0  0
   -1.1806   -0.0979    0.5124 C   0  0  0  0  0  0  0  0  0  0  0  0
   -1.8213   -0.0524    1.4024 H   0  0  0  0  0  0  0  0  0  0  0  0
   -0.6016    1.3151    0.2914 C   0  0  0  0  0  0  0  0  0  0  0  0
   -1.3361    1.8936   -0.2799 H   0  0  0  0  0  0  0  0  0  0  0  0
    0.7128    1.2834   -0.5124 C   0  0  0  0  0  0  0  0  0  0  0  0
    1.1625    2.2794   -0.4179 H   0  0  0  0  0  0  0  0  0  0  0  0
    1.6872    0.2594    0.1033 C   0  0  0  0  0  0  0  0  0  0  0  0
    2.5654    0.1599   -0.5522 H   0  0  0  0  0  0  0  0  0  0  0  0
    1.0048   -1.1229    0.1728 C   0  0  0  0  0  0  0  0  0  0  0  0
    1.6112   -1.8163    0.7714 H   0  0  0  0  0  0  0  0  0  0  0  0
   -0.2041   -1.0664    0.8869 O   0  0  0  0  0  0  0  0  0  0  0  0
    0.9105   -1.7042   -1.0857 O   0  0  0  0  0  0  0  0  0  0  0  0
    2.0557    0.7346    1.3740 O   0  0  0  0  0  0  0  0  0  0  0  0
    0.4311    0.9640   -1.8567 O   0  0  0  0  0  0  0  0  0  0  0  0
   -0.4342    2.0056    1.5023 O   0  0  0  0  0  0  0  0  0  0  0  0
   -2.4141   -1.8939   -0.6309 O   0  0  0  0  0  0  0  0  0  0  0  0
   -1.5026   -0.4173   -1.6263 H   0  0  0  0  0  0  0  0  0  0  0  0
   -2.9326    0.1050   -0.7131 H   0  0  0  0  0  0  0  0  0  0  0  0
    0.5231   -1.0655   -1.7108 H   0  0  0  0  0  0  0  0  0  0  0  0
    2.6924    0.1329    1.7856 H   0  0  0  0  0  0  0  0  0  0  0  0
    1.0468    1.4201   -2.4472 H   0  0  0  0  0  0  0  0  0  0  0  0
    0.3334    1.6331    1.9698 H   0  0  0  0  0  0  0  0  0  0  0  0
   -2.7995   -2.0873    0.2351 H   0  0  0  0  0  0  0  0  0  0  0  0
  1  2  1  0  0  0  0
  2  3  1  0  0  0  0
  2  4  1  0  0  0  0
  4  5  1  0  0  0  0
  4  6  1  0  0  0  0
  6  7  1  0  0  0  0
  6  8  1  0  0  0  0
  8  9  1  0  0  0  0
  8 10  1  0  0  0  0
 10 11  1  0  0  0  0
  2 12  1  0  0  0  0
 10 12  1  0  0  0  0
 10 13  1  0  0  0  0
  8 14  1  0  0  0  0
  6 15  1  0  0  0  0
  4 16  1  0  0  0  0
  1 17  1  0  0  0  0
  1 18  1  0  0  0  0
  1 19  1  0  0  0  0
 13 20  1  0  0  0  0
 14 21  1  0  0  0  0
 15 22  1  0  0  0  0
 16 23  1  0  0  0  0
 17 24  1  0  0  0  0
M  END
