 xtb: 6.7.1 (edcfbbe)
          04052516523D

 27 27  0     0  0            999 V2000
   -3.3995    0.5587    0.0207 C   0  0  0  0  0  0  0  0  0  0  0  0
   -1.9213    0.5024    0.3902 C   0  0  0  0  0  0  0  0  0  0  0  0
   -1.7999    0.7640    1.4467 H   0  0  0  0  0  0  0  0  0  0  0  0
   -1.0876    1.4848   -0.4485 C   0  0  0  0  0  0  0  0  0  0  0  0
    0.3892    1.4127   -0.0813 C   0  0  0  0  0  0  0  0  0  0  0  0
    0.9294   -0.0048   -0.2930 C   0  0  0  0  0  0  0  0  0  0  0  0
    0.7862   -0.2735   -1.3452 H   0  0  0  0  0  0  0  0  0  0  0  0
    0.1116   -0.9948    0.5559 C   0  0  0  0  0  0  0  0  0  0  0  0
   -1.3466   -0.8833    0.2025 C   0  0  0  0  0  0  0  0  0  0  0  0
   -1.9912   -1.8212   -0.2240 O   0  0  0  0  0  0  0  0  0  0  0  0
    2.4090   -0.0730    0.0196 C   0  0  0  0  0  0  0  0  0  0  0  0
    2.8861    0.0022    1.2519 C   0  0  0  0  0  0  0  0  0  0  0  0
    3.3037   -0.1951   -1.1751 C   0  0  0  0  0  0  0  0  0  0  0  0
   -3.7920    1.5595    0.1771 H   0  0  0  0  0  0  0  0  0  0  0  0
   -3.5364    0.2842   -1.0229 H   0  0  0  0  0  0  0  0  0  0  0  0
   -3.9663   -0.1436    0.6273 H   0  0  0  0  0  0  0  0  0  0  0  0
   -1.2177    1.2429   -1.5060 H   0  0  0  0  0  0  0  0  0  0  0  0
   -1.4654    2.4953   -0.2875 H   0  0  0  0  0  0  0  0  0  0  0  0
    0.9548    2.1112   -0.7001 H   0  0  0  0  0  0  0  0  0  0  0  0
    0.5295    1.7010    0.9617 H   0  0  0  0  0  0  0  0  0  0  0  0
    0.4520   -2.0171    0.3840 H   0  0  0  0  0  0  0  0  0  0  0  0
    0.2335   -0.7554    1.6122 H   0  0  0  0  0  0  0  0  0  0  0  0
    3.9438   -0.0280    1.4485 H   0  0  0  0  0  0  0  0  0  0  0  0
    2.2522    0.0951    2.1165 H   0  0  0  0  0  0  0  0  0  0  0  0
    3.1208    0.6274   -1.8652 H   0  0  0  0  0  0  0  0  0  0  0  0
    4.3502   -0.1842   -0.8845 H   0  0  0  0  0  0  0  0  0  0  0  0
    3.0956   -1.1244   -1.7040 H   0  0  0  0  0  0  0  0  0  0  0  0
  1  2  1  0  0  0  0
  2  3  1  0  0  0  0
  2  4  1  0  0  0  0
  4  5  1  0  0  0  0
  5  6  1  0  0  0  0
  6  7  1  0  0  0  0
  6  8  1  0  0  0  0
  2  9  1  0  0  0  0
  8  9  1  0  0  0  0
  9 10  2  0  0  0  0
  6 11  1  0  0  0  0
 11 12  2  0  0  0  0
 11 13  1  0  0  0  0
  1 14  1  0  0  0  0
  1 15  1  0  0  0  0
  1 16  1  0  0  0  0
  4 17  1  0  0  0  0
  4 18  1  0  0  0  0
  5 19  1  0  0  0  0
  5 20  1  0  0  0  0
  8 21  1  0  0  0  0
  8 22  1  0  0  0  0
 12 23  1  0  0  0  0
 12 24  1  0  0  0  0
 13 25  1  0  0  0  0
 13 26  1  0  0  0  0
 13 27  1  0  0  0  0
M  END
