27
 xtb: 6.7.1 (edcfbbe)
C           -3.43550675327486        0.56624700694115        0.02354217262929
C           -1.93878693129525        0.48205918945897        0.06661897653822
C           -1.14321979506090        1.50781597042221       -0.25971106391053
C            0.35479648889153        1.45327900809202       -0.28513568596204
C            0.87394780193912        0.00716613322710       -0.28012816769882
H            0.60567144103541       -0.43987728400715       -1.24611353796941
C            0.13171762884050       -0.76100785114872        0.81887944312911
C           -1.36245312858224       -0.83464148096129        0.52192083964436
H           -1.89367417450829       -1.14153863221995        1.43590189966672
O           -1.65243593928424       -1.81329472871101       -0.51478739862604
C            2.37711510869136       -0.06105917110347       -0.14520404969174
C            3.13991678270749       -0.41946648232595       -1.18322556154959
C            2.97500397700847        0.28325831980175        1.18836377603009
H           -3.86896822867281        0.32659988199655        1.00249783300931
H           -3.84947857235208       -0.15756887585245       -0.68845263357229
H           -3.77078948264236        1.56425745196469       -0.27142708798667
H           -1.60099538518846        2.45747492255149       -0.53614543391849
H            0.72389764261131        1.97832653060449       -1.17489378542836
H            0.75570058395604        2.00494198771131        0.57799379740568
H            0.52597850556372       -1.77867413033974        0.92767520031843
H            0.26725690895511       -0.25295671170203        1.78244540923955
H           -1.43529371700191       -2.68025768235173       -0.14742871193966
H            4.22324161841907       -0.46275932162095       -1.10278654065637
H            2.69861466398937       -0.68334248939288       -2.14133888465747
H            2.66237983285137       -0.43665652795389        1.95302347935669
H            4.06663226796204        0.27985573424260        1.14267612977177
H            2.64578343860829        1.26862255031362        1.53547245725676
