 xtb: 6.7.1 (edcfbbe)
          04042520003D

 16 17  0     0  0            999 V2000
    1.1048   -1.8564   -0.0022 C   0  0  0  0  0  0  0  0  0  0  0  0
    2.1018   -0.9010   -0.0050 C   0  0  0  0  0  0  0  0  0  0  0  0
    1.7998    0.4735   -0.0039 C   0  0  0  0  0  0  0  0  0  0  0  0
    0.4525    0.8484   -0.0025 C   0  0  0  0  0  0  0  0  0  0  0  0
   -0.5368   -0.1277    0.0005 C   0  0  0  0  0  0  0  0  0  0  0  0
   -0.2289   -1.4884    0.0005 C   0  0  0  0  0  0  0  0  0  0  0  0
   -1.8950    0.2741    0.0001 N   0  0  0  0  0  0  0  0  0  0  0  0
   -2.7668   -0.5868    0.0094 O   0  0  0  0  0  0  0  0  0  0  0  0
   -2.1579    1.4708   -0.0103 O   0  0  0  0  0  0  0  0  0  0  0  0
    2.7823    1.4018    0.0343 N   0  0  0  0  0  0  0  0  0  0  0  0
    1.3670   -2.9022   -0.0037 H   0  0  0  0  0  0  0  0  0  0  0  0
    3.1363   -1.2070   -0.0066 H   0  0  0  0  0  0  0  0  0  0  0  0
    0.1649    1.8881   -0.0017 H   0  0  0  0  0  0  0  0  0  0  0  0
   -1.0243   -2.2147    0.0013 H   0  0  0  0  0  0  0  0  0  0  0  0
    3.7348    1.1164   -0.1024 H   0  0  0  0  0  0  0  0  0  0  0  0
    2.5487    2.3702   -0.0869 H   0  0  0  0  0  0  0  0  0  0  0  0
  1  2  4  0  0  0  0
  2  3  4  0  0  0  0
  3  4  4  0  0  0  0
  4  5  4  0  0  0  0
  1  6  4  0  0  0  0
  5  6  4  0  0  0  0
  5  7  1  0  0  0  0
  7  8  4  0  0  0  0
  7  9  4  0  0  0  0
  8  9  1  0  0  0  0
  3 10  4  0  0  0  0
  1 11  1  0  0  0  0
  2 12  1  0  0  0  0
  4 13  1  0  0  0  0
  6 14  1  0  0  0  0
 10 15  1  0  0  0  0
 10 16  1  0  0  0  0
M  END
