22
CONF1
C 1.5396332269 1.4022439281 -1.3962887385
C 2.9098091547 1.5106643950 -1.5401874436
C 3.7486329188 0.8154358218 -0.6827801915
C 3.2161709362 0.0215192677 0.3301403963
C 1.8345211855 -0.0804303708 0.4663448598
C 0.9847254950 0.5988391563 -0.4057663385
C -0.4831632110 0.4780768537 -0.2768484967
C -1.2427932223 1.5911031236 0.0601414071
C -2.6169718174 1.4898563041 0.2010712431
C -3.2580366893 0.2688271369 0.0002418401
C -2.5052970465 -0.8473504307 -0.3588270143
C -1.1238898479 -0.7411442963 -0.5007868628
Cl -0.2212932049 -2.1219475885 -0.9930983343
Cl -3.2889718511 -2.3558801725 -0.6274662394
Cl -4.9630420309 0.1321473258 0.1847981873
Cl -3.5429065845 2.8734201718 0.6317260096
Cl 1.1817652704 -1.0246129400 1.7565609738
Cl 4.2581235150 -0.8293618131 1.4134903013
Cl 5.4603752394 0.9339375197 -0.8577883442
H 0.8826981727 1.9330508872 -2.0652107787
H 3.3369326028 2.1276673981 -2.3127515553
H -0.7563575571 2.5380002700 0.2274204769
22
CONF2
C 1.5767553451 0.5053776256 -1.7221893688
C 2.9481759724 0.5741525290 -1.8764953663
C 3.7729121555 0.4477620301 -0.7692117734
C 3.2246688260 0.2540243400 0.4962467902
C 1.8412563605 0.1940878846 0.6414672984
C 1.0058007089 0.3186653041 -0.4677117810
C -0.4625385931 0.2500722253 -0.3070030199
C -1.1321766541 1.2223902983 0.4251015159
C -2.5059182488 1.1615236882 0.5867959023
C -3.2375756415 0.1205483623 0.0180464898
C -2.5736124773 -0.8591514817 -0.7169791304
C -1.1914697967 -0.7922523911 -0.8799256075
Cl -0.3878706083 -2.0321702747 -1.7606627118
Cl -3.4655001127 -2.1542024017 -1.4143295178
Cl -4.9436115209 0.0351595731 0.2215339898
Cl -3.3191097948 2.3729978107 1.4985578959
Cl 1.1680390980 -0.0775562631 2.2084485949
Cl 4.2488754517 0.0841934061 1.8758367756
Cl 5.4862490915 0.5250347121 -0.9507955524
H 0.9330631404 0.6058262305 -2.5803234078
H 3.3868536272 0.7229310452 -2.8487782110
H -0.5787858336 2.0346024931 0.8666990187
