12
CONF1
C 1.7503927243 -0.3144181450 -0.2238349113
C 0.5675942903 0.5813762842 0.1593335256
C -0.6836804668 -0.2076173455 0.3852883655
C -1.8244056620 -0.0465395282 -0.2837556964
H 1.9459419337 -1.0588836401 0.5553897976
H 2.6602447532 0.2784494882 -0.3596263758
H 1.5487887577 -0.8489529504 -1.1578494575
H 0.3943765175 1.3347697192 -0.6177136290
H 0.8213844357 1.1206389824 1.0823694445
H -0.6240390293 -0.9793847403 1.1550340271
H -2.6963472633 -0.6602528423 -0.0751122874
H -1.9209839240 0.7087573261 -1.0613186973
12
CONF2
C 1.4632795005 -0.3447823442 -0.4956923406
C 0.6764403757 0.4636843337 0.5272964794
C -0.8144165036 0.3339474447 0.4475617331
C -1.4982254298 -0.4115476380 -0.4206207010
H 1.2654179833 -1.4171511100 -0.3943492565
H 2.5374715864 -0.1876962364 -0.3609526121
H 1.2068853760 -0.0510888454 -1.5191077986
H 0.9310860413 1.5295974166 0.4386640051
H 0.9888945782 0.1867283476 1.5443662073
H -1.3678819337 0.9174697415 1.1844432353
H -2.5841336978 -0.4396586365 -0.3975078978
H -1.0067679998 -1.0162563991 -1.1783502378
