 xtb: 6.7.1 (edcfbbe)
          04032521163D

  7  6  0     0  0            999 V2000
    0.7366   -0.0000    0.0121 C   0  0  0  0  0  0  0  0  0  0  0  0
   -0.7173    0.0000   -0.0714 N   0  0  0  0  0  0  0  0  0  0  0  0
    1.1151    0.8834   -0.5002 H   0  0  0  0  0  0  0  0  0  0  0  0
    1.1151   -0.8834   -0.5001 H   0  0  0  0  0  0  0  0  0  0  0  0
    1.1290    0.0001    1.0387 H   0  0  0  0  0  0  0  0  0  0  0  0
   -1.0849   -0.8170    0.4042 H   0  0  0  0  0  0  0  0  0  0  0  0
   -1.0848    0.8170    0.4041 H   0  0  0  0  0  0  0  0  0  0  0  0
  1  2  1  0  0  0  0
  1  3  1  0  0  0  0
  1  4  1  0  0  0  0
  1  5  1  0  0  0  0
  2  6  1  0  0  0  0
  2  7  1  0  0  0  0
M  END
