 xtb: 6.7.1 (edcfbbe)
          04062512123D

 31 31  0     0  0            999 V2000
    3.6884    0.3755    0.0497 C   0  0  0  0  0  0  0  0  0  0  0  0
    2.2153    0.3012   -0.3432 C   0  0  0  0  0  0  0  0  0  0  0  0
    2.1412    0.3372   -1.4360 H   0  0  0  0  0  0  0  0  0  0  0  0
    1.4288    1.4770    0.2353 C   0  0  0  0  0  0  0  0  0  0  0  0
   -0.0418    1.3875   -0.1609 C   0  0  0  0  0  0  0  0  0  0  0  0
   -0.6695    0.0883    0.3461 C   0  0  0  0  0  0  0  0  0  0  0  0
   -0.5440    0.0528    1.4362 H   0  0  0  0  0  0  0  0  0  0  0  0
    0.1099   -1.1054   -0.2361 C   0  0  0  0  0  0  0  0  0  0  0  0
    0.0123   -1.1104   -1.3274 H   0  0  0  0  0  0  0  0  0  0  0  0
    1.5911   -1.0066    0.1408 C   0  0  0  0  0  0  0  0  0  0  0  0
   -0.4313   -2.3507    0.1679 O   0  0  0  0  0  0  0  0  0  0  0  0
   -2.1814   -0.0286    0.0622 C   0  0  0  0  0  0  0  0  0  0  0  0
   -2.9915    0.8307    1.0323 C   0  0  0  0  0  0  0  0  0  0  0  0
   -2.5616    0.3170   -1.3765 C   0  0  0  0  0  0  0  0  0  0  0  0
    4.1314    1.3006   -0.3109 H   0  0  0  0  0  0  0  0  0  0  0  0
    3.7949    0.3428    1.1318 H   0  0  0  0  0  0  0  0  0  0  0  0
    4.2400   -0.4595   -0.3754 H   0  0  0  0  0  0  0  0  0  0  0  0
    1.5183    1.4706    1.3241 H   0  0  0  0  0  0  0  0  0  0  0  0
    1.8499    2.4161   -0.1288 H   0  0  0  0  0  0  0  0  0  0  0  0
   -0.5832    2.2406    0.2498 H   0  0  0  0  0  0  0  0  0  0  0  0
   -0.1152    1.4284   -1.2484 H   0  0  0  0  0  0  0  0  0  0  0  0
    1.6829   -1.0663    1.2291 H   0  0  0  0  0  0  0  0  0  0  0  0
    2.1205   -1.8604   -0.2882 H   0  0  0  0  0  0  0  0  0  0  0  0
   -0.3100   -2.4434    1.1234 H   0  0  0  0  0  0  0  0  0  0  0  0
   -2.4482   -1.0787    0.2318 H   0  0  0  0  0  0  0  0  0  0  0  0
   -2.7711    1.8858    0.8893 H   0  0  0  0  0  0  0  0  0  0  0  0
   -2.7689    0.5681    2.0639 H   0  0  0  0  0  0  0  0  0  0  0  0
   -4.0554    0.6815    0.8642 H   0  0  0  0  0  0  0  0  0  0  0  0
   -3.6094    0.0783   -1.5441 H   0  0  0  0  0  0  0  0  0  0  0  0
   -1.9693   -0.2567   -2.0846 H   0  0  0  0  0  0  0  0  0  0  0  0
   -2.4203    1.3764   -1.5741 H   0  0  0  0  0  0  0  0  0  0  0  0
  1  2  1  0  0  0  0
  2  3  1  0  0  0  0
  2  4  1  0  0  0  0
  4  5  1  0  0  0  0
  5  6  1  0  0  0  0
  6  7  1  0  0  0  0
  6  8  1  0  0  0  0
  8  9  1  0  0  0  0
  2 10  1  0  0  0  0
  8 10  1  0  0  0  0
  8 11  1  0  0  0  0
  6 12  1  0  0  0  0
 12 13  1  0  0  0  0
 12 14  1  0  0  0  0
  1 15  1  0  0  0  0
  1 16  1  0  0  0  0
  1 17  1  0  0  0  0
  4 18  1  0  0  0  0
  4 19  1  0  0  0  0
  5 20  1  0  0  0  0
  5 21  1  0  0  0  0
 10 22  1  0  0  0  0
 10 23  1  0  0  0  0
 11 24  1  0  0  0  0
 12 25  1  0  0  0  0
 13 26  1  0  0  0  0
 13 27  1  0  0  0  0
 13 28  1  0  0  0  0
 14 29  1  0  0  0  0
 14 30  1  0  0  0  0
 14 31  1  0  0  0  0
M  END
