 xtb: 6.7.1 (edcfbbe)
          04032521113D

 18 18  0     0  0            999 V2000
   -1.8986    0.0359   -0.5680 C   0  0  0  0  0  0  0  0  0  0  0  0
   -0.8326   -0.0497    0.5220 C   0  0  0  0  0  0  0  0  0  0  0  0
    0.1061   -1.2541    0.3028 C   0  0  0  0  0  0  0  0  0  0  0  0
    1.4510   -0.6875   -0.1866 C   0  0  0  0  0  0  0  0  0  0  0  0
    1.1812    0.7830   -0.5075 C   0  0  0  0  0  0  0  0  0  0  0  0
    0.0985    1.1686    0.4952 C   0  0  0  0  0  0  0  0  0  0  0  0
   -2.5283    0.9102   -0.4176 H   0  0  0  0  0  0  0  0  0  0  0  0
   -1.4385    0.1067   -1.5501 H   0  0  0  0  0  0  0  0  0  0  0  0
   -2.5323   -0.8481   -0.5486 H   0  0  0  0  0  0  0  0  0  0  0  0
   -1.3395   -0.1244    1.4882 H   0  0  0  0  0  0  0  0  0  0  0  0
    0.2421   -1.8124    1.2288 H   0  0  0  0  0  0  0  0  0  0  0  0
   -0.3214   -1.9362   -0.4312 H   0  0  0  0  0  0  0  0  0  0  0  0
    2.1973   -0.7577    0.6057 H   0  0  0  0  0  0  0  0  0  0  0  0
    1.8307   -1.2298   -1.0514 H   0  0  0  0  0  0  0  0  0  0  0  0
    2.0754    1.3976   -0.4139 H   0  0  0  0  0  0  0  0  0  0  0  0
    0.8024    0.8870   -1.5248 H   0  0  0  0  0  0  0  0  0  0  0  0
    0.5472    1.3132    1.4794 H   0  0  0  0  0  0  0  0  0  0  0  0
   -0.4257    2.0820    0.2183 H   0  0  0  0  0  0  0  0  0  0  0  0
  1  2  1  0  0  0  0
  2  3  1  0  0  0  0
  3  4  1  0  0  0  0
  4  5  1  0  0  0  0
  2  6  1  0  0  0  0
  5  6  1  0  0  0  0
  1  7  1  0  0  0  0
  1  8  1  0  0  0  0
  1  9  1  0  0  0  0
  2 10  1  0  0  0  0
  3 11  1  0  0  0  0
  3 12  1  0  0  0  0
  4 13  1  0  0  0  0
  4 14  1  0  0  0  0
  5 15  1  0  0  0  0
  5 16  1  0  0  0  0
  6 17  1  0  0  0  0
  6 18  1  0  0  0  0
M  END
