 xtb: 6.7.1 (edcfbbe)
          04062518003D

 24 24  0     0  0            999 V2000
   -2.4022   -0.7105   -0.0172 C   0  0  0  0  0  0  0  0  0  0  0  0
   -0.9681   -0.3036    0.3456 C   0  0  0  0  0  0  0  0  0  0  0  0
   -0.9192   -0.0298    1.4109 H   0  0  0  0  0  0  0  0  0  0  0  0
   -0.5083    0.9011   -0.4976 C   0  0  0  0  0  0  0  0  0  0  0  0
   -0.5144    0.6062   -1.5530 H   0  0  0  0  0  0  0  0  0  0  0  0
    0.9279    1.3146   -0.1032 C   0  0  0  0  0  0  0  0  0  0  0  0
    0.8768    2.1037    0.6561 H   0  0  0  0  0  0  0  0  0  0  0  0
    1.6978    0.1340    0.5267 C   0  0  0  0  0  0  0  0  0  0  0  0
    2.7624    0.2717    0.2932 H   0  0  0  0  0  0  0  0  0  0  0  0
    1.2250   -1.1738   -0.1265 C   0  0  0  0  0  0  0  0  0  0  0  0
    1.7650   -2.0364    0.2957 H   0  0  0  0  0  0  0  0  0  0  0  0
   -0.1272   -1.4367    0.1335 O   0  0  0  0  0  0  0  0  0  0  0  0
    1.4851   -1.0585   -1.4952 O   0  0  0  0  0  0  0  0  0  0  0  0
    1.4731    0.1427    1.9119 O   0  0  0  0  0  0  0  0  0  0  0  0
    1.6327    1.8737   -1.1777 O   0  0  0  0  0  0  0  0  0  0  0  0
   -1.4125    1.9705   -0.4127 O   0  0  0  0  0  0  0  0  0  0  0  0
   -2.9828   -1.6062    0.8946 O   0  0  0  0  0  0  0  0  0  0  0  0
   -2.3906   -1.2324   -0.9756 H   0  0  0  0  0  0  0  0  0  0  0  0
   -3.0041    0.2014   -0.1146 H   0  0  0  0  0  0  0  0  0  0  0  0
    1.2466   -1.8819   -1.9478 H   0  0  0  0  0  0  0  0  0  0  0  0
    2.0534   -0.4956    2.3513 H   0  0  0  0  0  0  0  0  0  0  0  0
    1.7484    1.1960   -1.8622 H   0  0  0  0  0  0  0  0  0  0  0  0
   -1.3531    2.3838    0.4613 H   0  0  0  0  0  0  0  0  0  0  0  0
   -3.0246   -1.1966    1.7705 H   0  0  0  0  0  0  0  0  0  0  0  0
  1  2  1  0  0  0  0
  2  3  1  0  0  0  0
  2  4  1  0  0  0  0
  4  5  1  0  0  0  0
  4  6  1  0  0  0  0
  6  7  1  0  0  0  0
  6  8  1  0  0  0  0
  8  9  1  0  0  0  0
  8 10  1  0  0  0  0
 10 11  1  0  0  0  0
  2 12  1  0  0  0  0
 10 12  1  0  0  0  0
 10 13  1  0  0  0  0
  8 14  1  0  0  0  0
  6 15  1  0  0  0  0
  4 16  1  0  0  0  0
  1 17  1  0  0  0  0
  1 18  1  0  0  0  0
  1 19  1  0  0  0  0
 13 20  1  0  0  0  0
 14 21  1  0  0  0  0
 15 22  1  0  0  0  0
 16 23  1  0  0  0  0
 17 24  1  0  0  0  0
M  END
