14
CONF1
C 2.0232728191 0.7604251407 -0.0004196811
C 0.7813252708 -0.0770750659 0.0001690076
O 0.8285529761 -1.3091418387 0.0020887228
C -0.5010859188 0.6523228108 -0.0019550278
C -1.6735617658 0.0188862367 -0.7402459081
C -1.6729857899 0.0231224049 0.7410807686
H 2.0198063429 1.4184685661 0.8763648300
H 2.9186717104 0.1377494656 0.0010882465
H 2.0209632110 1.4159183165 -0.8791118941
H -0.4394117884 1.7345340603 -0.0048801982
H -2.3299649630 0.7066831870 -1.2612010935
H -1.4597421799 -0.9176237588 -1.2446338987
H -2.3288450838 0.7139780820 1.2586659840
H -1.4586943761 -0.9104135886 1.2507569470
14
CONF2
C 1.4312985017 0.9425615727 -0.2715354990
C 0.7477749579 -0.3515352644 0.0710061512
O 1.4132746172 -1.3736411102 0.2690425602
C -0.7152528931 -0.3942881248 0.2126016008
C -1.5002903440 0.8587343467 0.5742312607
C -1.6049489049 0.3231765050 -0.8032083768
H 1.5964262368 1.4918696591 0.6638322530
H 2.4033089001 0.7370699444 -0.7227255270
H 0.8420768801 1.5873023121 -0.9267428570
H -1.0924031025 -1.3394396260 0.5888711412
H -2.3310775812 0.7042312468 1.2539191930
H -0.9327584104 1.7695449249 0.7298054969
H -2.5026857989 -0.2167075192 -1.0835063431
H -1.1110961411 0.8560989490 -1.6079629051
14
CONF3
C 1.4490876506 0.9693264255 0.0195589042
C 0.7528823444 -0.3613726291 -0.0027586810
O 1.4061241797 -1.4102535169 -0.0160250370
C -0.7183271852 -0.4283498819 -0.0148871199
C -1.5614275525 0.5894983026 0.7490267887
C -1.5516253057 0.6299178193 -0.7323987729
H 1.1866883535 1.5580494616 -0.8655624338
H 1.1469587498 1.5555616314 0.8933026691
H 2.5284464060 0.8160733491 0.0427555634
H -1.1027546945 -1.4424534385 -0.0433458095
H -2.4315592984 0.1810957225 1.2507392634
H -1.0335456547 1.3673836283 1.2881817787
H -2.4153715693 0.2508866338 -1.2671317920
H -1.0156726721 1.4357181036 -1.2200833527
