 xtb: 6.7.1 (edcfbbe)
          04062518003D

 24 24  0     0  0            999 V2000
   -2.0591   -1.2131   -0.2603 C   0  0  0  0  0  0  0  0  0  0  0  0
   -1.2739   -0.3549    0.7551 C   0  0  0  0  0  0  0  0  0  0  0  0
   -1.8989   -0.2277    1.6451 H   0  0  0  0  0  0  0  0  0  0  0  0
   -0.9433    1.0479    0.1884 C   0  0  0  0  0  0  0  0  0  0  0  0
   -1.2677    1.0888   -0.8618 H   0  0  0  0  0  0  0  0  0  0  0  0
    0.5741    1.3032    0.2188 C   0  0  0  0  0  0  0  0  0  0  0  0
    0.8965    1.4251    1.2576 H   0  0  0  0  0  0  0  0  0  0  0  0
    1.2856    0.0927   -0.4041 C   0  0  0  0  0  0  0  0  0  0  0  0
    0.8829   -0.0644   -1.4154 H   0  0  0  0  0  0  0  0  0  0  0  0
    0.9894   -1.1586    0.4475 C   0  0  0  0  0  0  0  0  0  0  0  0
    1.8252   -1.3037    1.1467 H   0  0  0  0  0  0  0  0  0  0  0  0
   -0.1299   -1.0250    1.2795 O   0  0  0  0  0  0  0  0  0  0  0  0
    0.8715   -2.2550   -0.4182 O   0  0  0  0  0  0  0  0  0  0  0  0
    2.6643    0.3507   -0.4545 O   0  0  0  0  0  0  0  0  0  0  0  0
    0.9152    2.5024   -0.4137 O   0  0  0  0  0  0  0  0  0  0  0  0
   -1.5587    2.0691    0.9368 O   0  0  0  0  0  0  0  0  0  0  0  0
   -1.4836   -1.2641   -1.5421 O   0  0  0  0  0  0  0  0  0  0  0  0
   -3.0473   -0.7693   -0.3961 H   0  0  0  0  0  0  0  0  0  0  0  0
   -2.1792   -2.2195    0.1566 H   0  0  0  0  0  0  0  0  0  0  0  0
    0.8612   -3.0828    0.0871 H   0  0  0  0  0  0  0  0  0  0  0  0
    3.1002   -0.2990   -1.0249 H   0  0  0  0  0  0  0  0  0  0  0  0
    0.6865    2.4557   -1.3544 H   0  0  0  0  0  0  0  0  0  0  0  0
   -2.4925    2.1441    0.6966 H   0  0  0  0  0  0  0  0  0  0  0  0
   -0.6576   -1.7800   -1.4858 H   0  0  0  0  0  0  0  0  0  0  0  0
  1  2  1  0  0  0  0
  2  3  1  0  0  0  0
  2  4  1  0  0  0  0
  4  5  1  0  0  0  0
  4  6  1  0  0  0  0
  6  7  1  0  0  0  0
  6  8  1  0  0  0  0
  8  9  1  0  0  0  0
  8 10  1  0  0  0  0
 10 11  1  0  0  0  0
  2 12  1  0  0  0  0
 10 12  1  0  0  0  0
 10 13  1  0  0  0  0
  8 14  1  0  0  0  0
  6 15  1  0  0  0  0
  4 16  1  0  0  0  0
  1 17  1  0  0  0  0
  1 18  1  0  0  0  0
  1 19  1  0  0  0  0
 13 20  1  0  0  0  0
 14 21  1  0  0  0  0
 15 22  1  0  0  0  0
 16 23  1  0  0  0  0
 17 24  1  0  0  0  0
M  END
