 xtb: 6.7.1 (edcfbbe)
          04062518003D

 24 24  0     0  0            999 V2000
   -2.5309   -0.9604    0.3570 C   0  0  0  0  0  0  0  0  0  0  0  0
   -1.0982   -0.4743    0.6211 C   0  0  0  0  0  0  0  0  0  0  0  0
   -0.9307   -0.4080    1.7075 H   0  0  0  0  0  0  0  0  0  0  0  0
   -0.8221    0.9029   -0.0062 C   0  0  0  0  0  0  0  0  0  0  0  0
   -1.0177    0.8441   -1.0853 H   0  0  0  0  0  0  0  0  0  0  0  0
    0.6524    1.2894    0.1927 C   0  0  0  0  0  0  0  0  0  0  0  0
    0.8299    1.4663    1.2647 H   0  0  0  0  0  0  0  0  0  0  0  0
    1.5851    0.1676   -0.2674 C   0  0  0  0  0  0  0  0  0  0  0  0
    1.5474    0.1105   -1.3643 H   0  0  0  0  0  0  0  0  0  0  0  0
    1.1301   -1.1859    0.3089 C   0  0  0  0  0  0  0  0  0  0  0  0
    1.3003   -1.1639    1.4070 H   0  0  0  0  0  0  0  0  0  0  0  0
   -0.2296   -1.4432    0.0605 O   0  0  0  0  0  0  0  0  0  0  0  0
    1.8776   -2.1749   -0.2980 O   0  0  0  0  0  0  0  0  0  0  0  0
    2.8823    0.4633    0.1773 O   0  0  0  0  0  0  0  0  0  0  0  0
    0.9620    2.4421   -0.5475 O   0  0  0  0  0  0  0  0  0  0  0  0
   -1.5909    1.9194    0.5913 O   0  0  0  0  0  0  0  0  0  0  0  0
   -2.8666   -0.9369   -1.0053 O   0  0  0  0  0  0  0  0  0  0  0  0
   -3.2372   -0.3027    0.8651 H   0  0  0  0  0  0  0  0  0  0  0  0
   -2.6286   -1.9723    0.7671 H   0  0  0  0  0  0  0  0  0  0  0  0
    1.5261   -3.0478   -0.0616 H   0  0  0  0  0  0  0  0  0  0  0  0
    3.4947   -0.1970   -0.1807 H   0  0  0  0  0  0  0  0  0  0  0  0
    0.3816    3.1587   -0.2482 H   0  0  0  0  0  0  0  0  0  0  0  0
   -2.4954    1.8867    0.2501 H   0  0  0  0  0  0  0  0  0  0  0  0
   -2.2863   -1.5515   -1.4766 H   0  0  0  0  0  0  0  0  0  0  0  0
  1  2  1  0  0  0  0
  2  3  1  0  0  0  0
  2  4  1  0  0  0  0
  4  5  1  0  0  0  0
  4  6  1  0  0  0  0
  6  7  1  0  0  0  0
  6  8  1  0  0  0  0
  8  9  1  0  0  0  0
  8 10  1  0  0  0  0
 10 11  1  0  0  0  0
  2 12  1  0  0  0  0
 10 12  1  0  0  0  0
 10 13  1  0  0  0  0
  8 14  1  0  0  0  0
  6 15  1  0  0  0  0
  4 16  1  0  0  0  0
  1 17  1  0  0  0  0
  1 18  1  0  0  0  0
  1 19  1  0  0  0  0
 13 20  1  0  0  0  0
 14 21  1  0  0  0  0
 15 22  1  0  0  0  0
 16 23  1  0  0  0  0
 17 24  1  0  0  0  0
M  END
