 xtb: 6.7.1 (edcfbbe)
          04062518003D

 24 24  0     0  0            999 V2000
   -2.0905   -1.2194   -0.1899 C   0  0  0  0  0  0  0  0  0  0  0  0
   -1.2401   -0.3720    0.7691 C   0  0  0  0  0  0  0  0  0  0  0  0
   -1.8306   -0.2409    1.6825 H   0  0  0  0  0  0  0  0  0  0  0  0
   -0.9207    1.0179    0.1731 C   0  0  0  0  0  0  0  0  0  0  0  0
   -1.2038    1.0432   -0.8847 H   0  0  0  0  0  0  0  0  0  0  0  0
    0.5866    1.2863    0.2626 C   0  0  0  0  0  0  0  0  0  0  0  0
    0.8908    1.3534    1.3205 H   0  0  0  0  0  0  0  0  0  0  0  0
    1.3357    0.1189   -0.3868 C   0  0  0  0  0  0  0  0  0  0  0  0
    0.9963    0.0292   -1.4308 H   0  0  0  0  0  0  0  0  0  0  0  0
    1.0109   -1.1903    0.3643 C   0  0  0  0  0  0  0  0  0  0  0  0
    1.8603   -1.4341    1.0132 H   0  0  0  0  0  0  0  0  0  0  0  0
   -0.0759   -1.0378    1.2494 O   0  0  0  0  0  0  0  0  0  0  0  0
    0.8573   -2.2723   -0.4857 O   0  0  0  0  0  0  0  0  0  0  0  0
    2.7259    0.3074   -0.3466 O   0  0  0  0  0  0  0  0  0  0  0  0
    0.9404    2.4663   -0.4175 O   0  0  0  0  0  0  0  0  0  0  0  0
   -1.6587    2.0523    0.7738 O   0  0  0  0  0  0  0  0  0  0  0  0
   -1.4950   -1.2713   -1.4744 O   0  0  0  0  0  0  0  0  0  0  0  0
   -3.0776   -0.7504   -0.2498 H   0  0  0  0  0  0  0  0  0  0  0  0
   -2.1837   -2.2267    0.2319 H   0  0  0  0  0  0  0  0  0  0  0  0
    0.1058   -2.0880   -1.0901 H   0  0  0  0  0  0  0  0  0  0  0  0
    2.9206    1.1856   -0.7114 H   0  0  0  0  0  0  0  0  0  0  0  0
    0.2818    3.1491   -0.2171 H   0  0  0  0  0  0  0  0  0  0  0  0
   -1.4872    2.0711    1.7273 H   0  0  0  0  0  0  0  0  0  0  0  0
   -2.1074   -1.7012   -2.0889 H   0  0  0  0  0  0  0  0  0  0  0  0
  1  2  1  0  0  0  0
  2  3  1  0  0  0  0
  2  4  1  0  0  0  0
  4  5  1  0  0  0  0
  4  6  1  0  0  0  0
  6  7  1  0  0  0  0
  6  8  1  0  0  0  0
  8  9  1  0  0  0  0
  8 10  1  0  0  0  0
 10 11  1  0  0  0  0
  2 12  1  0  0  0  0
 10 12  1  0  0  0  0
 10 13  1  0  0  0  0
  8 14  1  0  0  0  0
  6 15  1  0  0  0  0
  4 16  1  0  0  0  0
  1 17  1  0  0  0  0
  1 18  1  0  0  0  0
  1 19  1  0  0  0  0
 13 20  1  0  0  0  0
 14 21  1  0  0  0  0
 15 22  1  0  0  0  0
 16 23  1  0  0  0  0
 17 24  1  0  0  0  0
M  END
