21
CONF1
C -3.1589987537 0.0025169276 0.8413135282
C -2.4547517605 -0.0015704954 -0.5175111311
C -0.9630438543 -0.0011709784 -0.3388008438
C -0.2586442760 -1.1929508764 -0.2292182587
C 1.1085765324 -1.1924506872 -0.0224104875
C 1.8131695928 0.0000799332 0.0837012270
C 1.1076967965 1.1920782163 -0.0241868025
C -0.2594190609 1.1913476628 -0.2309114180
C 3.2986096146 0.0014160443 0.2833942726
H -2.8751851461 0.8847050184 1.4107224320
H -2.8782620354 -0.8783929392 1.4141900977
H -4.2382189647 0.0041102195 0.7101562570
H -2.7588700375 0.8817333360 -1.0824542201
H -2.7591349700 -0.8879527532 -1.0775080818
H -0.7872063977 -2.1325904904 -0.3083576258
H 1.6372556170 -2.1317771684 0.0582033123
H 1.6359056814 2.1317935005 0.0551667390
H -0.7886810582 2.1304819095 -0.3115660647
H 3.6179849931 -0.8907398634 0.8163495999
H 3.8026326468 0.0166335288 -0.6831263734
H 3.6128302562 0.8803881872 0.8409264722
21
CONF2
C -3.2871970816 0.6973711624 0.4061587631
C -2.4496173862 -0.3871925268 -0.2629885131
C -0.9582060306 -0.2098570742 -0.1397456248
C -0.1308718107 -1.3180923138 -0.2990284322
C 1.2427001799 -1.2034077627 -0.2189591305
C 1.8420337749 0.0271554935 0.0270226720
C 1.0190402745 1.1318562016 0.1869521992
C -0.3586917054 1.0176021060 0.1031831081
C 3.3328991417 0.1410266653 0.1295592780
H -4.3386091698 0.4214495842 0.3741140407
H -3.1749139837 1.6513521776 -0.1028621076
H -2.9941693012 0.8187068549 1.4465785132
H -2.7035816147 -0.4276510311 -1.3273815458
H -2.7145630306 -1.3574829913 0.1650153461
H -0.5740850761 -2.2856565369 -0.4903693355
H 1.8619447454 -2.0800322662 -0.3470159856
H 1.4589554847 2.1005246180 0.3789985387
H -0.9623684759 1.9024789504 0.2302863541
H 3.6782336614 -0.2987230309 1.0648899849
H 3.8140613011 -0.3928654252 -0.6873778715
H 3.6449826885 1.1817471988 0.1036313231
