 xtb: 6.7.1 (edcfbbe)
          04052500003D

 17 17  0     0  0            999 V2000
   -2.8625    0.3977   -0.1064 C   0  0  0  0  0  0  0  0  0  0  0  0
   -1.8164   -0.5699    0.1261 N   0  0  0  0  0  0  0  0  0  0  0  0
   -0.4843   -0.2523    0.0354 C   0  0  0  0  0  0  0  0  0  0  0  0
    0.4640   -1.2824   -0.0097 C   0  0  0  0  0  0  0  0  0  0  0  0
    1.8135   -1.0027   -0.0385 C   0  0  0  0  0  0  0  0  0  0  0  0
    2.2603    0.3099   -0.0278 C   0  0  0  0  0  0  0  0  0  0  0  0
    1.3324    1.3363    0.0128 C   0  0  0  0  0  0  0  0  0  0  0  0
   -0.0227    1.0676    0.0426 C   0  0  0  0  0  0  0  0  0  0  0  0
   -2.7945    0.8583   -1.0992 H   0  0  0  0  0  0  0  0  0  0  0  0
   -2.8119    1.1851    0.6464 H   0  0  0  0  0  0  0  0  0  0  0  0
   -3.8234   -0.1013   -0.0148 H   0  0  0  0  0  0  0  0  0  0  0  0
   -2.0401   -1.5173   -0.1353 H   0  0  0  0  0  0  0  0  0  0  0  0
    0.1250   -2.3090   -0.0199 H   0  0  0  0  0  0  0  0  0  0  0  0
    2.5258   -1.8147   -0.0733 H   0  0  0  0  0  0  0  0  0  0  0  0
    3.3173    0.5278   -0.0530 H   0  0  0  0  0  0  0  0  0  0  0  0
    1.6674    2.3639    0.0181 H   0  0  0  0  0  0  0  0  0  0  0  0
   -0.7228    1.8871    0.0712 H   0  0  0  0  0  0  0  0  0  0  0  0
  1  2  1  0  0  0  0
  2  3  1  0  0  0  0
  3  4  4  0  0  0  0
  4  5  4  0  0  0  0
  5  6  4  0  0  0  0
  6  7  4  0  0  0  0
  3  8  4  0  0  0  0
  7  8  4  0  0  0  0
  1  9  1  0  0  0  0
  1 10  1  0  0  0  0
  1 11  1  0  0  0  0
  2 12  1  0  0  0  0
  4 13  1  0  0  0  0
  5 14  1  0  0  0  0
  6 15  1  0  0  0  0
  7 16  1  0  0  0  0
  8 17  1  0  0  0  0
M  END
