 xtb: 6.7.1 (edcfbbe)
          04032521503D

 21 21  0     0  0            999 V2000
    1.9512    0.0002   -0.7701 C   0  0  0  0  0  0  0  0  0  0  0  0
    1.1119   -0.0002    0.5188 C   0  0  0  0  0  0  0  0  0  0  0  0
    0.2332    1.2508    0.6381 C   0  0  0  0  0  0  0  0  0  0  0  0
   -0.9115    1.2486   -0.3714 C   0  0  0  0  0  0  0  0  0  0  0  0
   -1.7699    0.0000   -0.1990 C   0  0  0  0  0  0  0  0  0  0  0  0
   -0.9114   -1.2485   -0.3715 C   0  0  0  0  0  0  0  0  0  0  0  0
    0.2329   -1.2510    0.6382 C   0  0  0  0  0  0  0  0  0  0  0  0
    3.0134    0.0042   -0.5389 H   0  0  0  0  0  0  0  0  0  0  0  0
    1.7482   -0.8806   -1.3732 H   0  0  0  0  0  0  0  0  0  0  0  0
    1.7424    0.8771   -1.3769 H   0  0  0  0  0  0  0  0  0  0  0  0
    1.7985   -0.0004    1.3732 H   0  0  0  0  0  0  0  0  0  0  0  0
   -0.1883    1.2882    1.6459 H   0  0  0  0  0  0  0  0  0  0  0  0
    0.8481    2.1433    0.5035 H   0  0  0  0  0  0  0  0  0  0  0  0
   -1.5213    2.1441   -0.2339 H   0  0  0  0  0  0  0  0  0  0  0  0
   -0.5122    1.2713   -1.3870 H   0  0  0  0  0  0  0  0  0  0  0  0
   -2.2153   -0.0000    0.7988 H   0  0  0  0  0  0  0  0  0  0  0  0
   -2.5816    0.0000   -0.9294 H   0  0  0  0  0  0  0  0  0  0  0  0
   -1.5213   -2.1440   -0.2341 H   0  0  0  0  0  0  0  0  0  0  0  0
   -0.5119   -1.2711   -1.3872 H   0  0  0  0  0  0  0  0  0  0  0  0
   -0.1886   -1.2883    1.6460 H   0  0  0  0  0  0  0  0  0  0  0  0
    0.8478   -2.1436    0.5037 H   0  0  0  0  0  0  0  0  0  0  0  0
  1  2  1  0  0  0  0
  2  3  1  0  0  0  0
  3  4  1  0  0  0  0
  4  5  1  0  0  0  0
  5  6  1  0  0  0  0
  2  7  1  0  0  0  0
  6  7  1  0  0  0  0
  1  8  1  0  0  0  0
  1  9  1  0  0  0  0
  1 10  1  0  0  0  0
  2 11  1  0  0  0  0
  3 12  1  0  0  0  0
  3 13  1  0  0  0  0
  4 14  1  0  0  0  0
  4 15  1  0  0  0  0
  5 16  1  0  0  0  0
  5 17  1  0  0  0  0
  6 18  1  0  0  0  0
  6 19  1  0  0  0  0
  7 20  1  0  0  0  0
  7 21  1  0  0  0  0
M  END
