 xtb: 6.7.1 (edcfbbe)
          04062505073D

 29 29  0     0  0            999 V2000
   -2.8610   -0.0939    1.0754 C   0  0  0  0  0  0  0  0  0  0  0  0
   -2.2831   -0.3690   -0.3117 C   0  0  0  0  0  0  0  0  0  0  0  0
   -3.1151   -0.6378   -0.9714 H   0  0  0  0  0  0  0  0  0  0  0  0
   -1.2714   -1.5126   -0.3167 C   0  0  0  0  0  0  0  0  0  0  0  0
   -0.1316   -1.2448    0.6584 C   0  0  0  0  0  0  0  0  0  0  0  0
    0.4991    0.1518    0.5131 C   0  0  0  0  0  0  0  0  0  0  0  0
    0.3642    0.6907    1.4621 H   0  0  0  0  0  0  0  0  0  0  0  0
   -0.1638    1.0843   -0.4810 C   0  0  0  0  0  0  0  0  0  0  0  0
    0.4387    2.0484   -0.9249 O   0  0  0  0  0  0  0  0  0  0  0  0
   -1.5976    0.8661   -0.8900 C   0  0  0  0  0  0  0  0  0  0  0  0
    2.0244    0.1250    0.2582 C   0  0  0  0  0  0  0  0  0  0  0  0
    2.7800   -0.4925    1.4318 C   0  0  0  0  0  0  0  0  0  0  0  0
    2.3681   -0.5818   -1.0517 C   0  0  0  0  0  0  0  0  0  0  0  0
   -2.1145    0.3367    1.7362 H   0  0  0  0  0  0  0  0  0  0  0  0
   -3.6888    0.6075    1.0007 H   0  0  0  0  0  0  0  0  0  0  0  0
   -3.2332   -1.0136    1.5195 H   0  0  0  0  0  0  0  0  0  0  0  0
   -1.7595   -2.4500   -0.0459 H   0  0  0  0  0  0  0  0  0  0  0  0
   -0.8737   -1.6205   -1.3284 H   0  0  0  0  0  0  0  0  0  0  0  0
   -0.5020   -1.3675    1.6761 H   0  0  0  0  0  0  0  0  0  0  0  0
    0.6339   -2.0046    0.5086 H   0  0  0  0  0  0  0  0  0  0  0  0
   -2.1460    1.7775   -0.6375 H   0  0  0  0  0  0  0  0  0  0  0  0
   -1.5854    0.8162   -1.9829 H   0  0  0  0  0  0  0  0  0  0  0  0
    2.3383    1.1707    0.1607 H   0  0  0  0  0  0  0  0  0  0  0  0
    2.5490    0.0324    2.3558 H   0  0  0  0  0  0  0  0  0  0  0  0
    3.8509   -0.4225    1.2580 H   0  0  0  0  0  0  0  0  0  0  0  0
    2.5254   -1.5414    1.5578 H   0  0  0  0  0  0  0  0  0  0  0  0
    1.8624   -0.0967   -1.8843 H   0  0  0  0  0  0  0  0  0  0  0  0
    2.0791   -1.6293   -1.0303 H   0  0  0  0  0  0  0  0  0  0  0  0
    3.4394   -0.5294   -1.2296 H   0  0  0  0  0  0  0  0  0  0  0  0
  1  2  1  0  0  0  0
  2  3  1  0  0  0  0
  2  4  1  0  0  0  0
  4  5  1  0  0  0  0
  5  6  1  0  0  0  0
  6  7  1  0  0  0  0
  6  8  1  0  0  0  0
  8  9  2  0  0  0  0
  2 10  1  0  0  0  0
  8 10  1  0  0  0  0
  6 11  1  0  0  0  0
 11 12  1  0  0  0  0
 11 13  1  0  0  0  0
  1 14  1  0  0  0  0
  1 15  1  0  0  0  0
  1 16  1  0  0  0  0
  4 17  1  0  0  0  0
  4 18  1  0  0  0  0
  5 19  1  0  0  0  0
  5 20  1  0  0  0  0
 10 21  1  0  0  0  0
 10 22  1  0  0  0  0
 11 23  1  0  0  0  0
 12 24  1  0  0  0  0
 12 25  1  0  0  0  0
 12 26  1  0  0  0  0
 13 27  1  0  0  0  0
 13 28  1  0  0  0  0
 13 29  1  0  0  0  0
M  END
