19
 xtb: 6.7.1 (edcfbbe)
C           -2.81628816115321        1.40864564510527       -0.09575192369083
C           -2.38422529549774       -0.04441427444797        0.04781620219227
C           -0.89341928660264       -0.29910684390354        0.04602892951310
C           -0.42817249198279       -1.61827678390523        0.15552378548673
C            0.93449889997093       -1.88804186753357        0.15859013036532
C            1.86747056750875       -0.85750926577881        0.05217860729154
C            1.40477901348600        0.45027476275845       -0.05994737856286
C            0.03732624367429        0.73268786391692       -0.06115117689043
O            2.26295014185613        1.52511419313309       -0.17595394960094
H           -2.43846761608246        2.02574279250868        0.72593460410717
H           -3.90809014708687        1.47562209247536       -0.08689961587547
H           -2.46347940491132        1.84392149085946       -1.03645657595680
H           -2.83017909818417       -0.63982749564981       -0.75916528325185
H           -2.79793834832389       -0.45779702109251        0.97675043528587
H           -1.14323035267524       -2.43201833641182        0.23754370841772
H            1.28384904403501       -2.91271359872297        0.24389866798429
H            2.93449839270597       -1.06140737649689        0.05215009544646
H           -0.27729510269162        1.76678210446831       -0.14975636681760
H            3.17432527866677        1.20058081552506       -0.17786435123203
