19
 xtb: 6.7.1 (edcfbbe)
C           -2.64057825603301        1.51805015882675        0.11112496076994
C           -1.96708652331488        0.15739927020082       -0.01177747140182
C           -0.45852508765409        0.17532176309698        0.00979275797823
C            0.29774129475162        1.34119107532194        0.13323487722772
C            1.69313266579463        1.31479282056171        0.14904279378703
C            2.36067627362335        0.10007085859870        0.03762864693206
C            1.63427995662471       -1.08162882029114       -0.08695435147985
C            0.24275758660649       -1.03720312069079       -0.09767997804615
O           -0.51240156438020       -2.18587738302557       -0.21372917979665
H           -2.35888625726266        2.18492088369912       -0.71022085443595
H           -2.38387656229035        2.01309620478948        1.05328030857396
H           -3.72738891982118        1.39737433445524        0.08399481388129
H           -2.29560221702133       -0.33011829852993       -0.93909566484422
H           -2.31892294433216       -0.49832732307787        0.79553854779440
H           -0.21160327614054        2.29502334146118        0.21997970849722
H            2.25046939833605        2.24057255399237        0.24751926725033
H            3.44552450419628        0.06342505020324        0.04730034458281
H            2.13915155972031       -2.04035440605975       -0.17456980034753
H            0.08473949513838       -2.94523374131713       -0.26669793093882
