 xtb: 6.7.1 (edcfbbe)
          04052503223D

 18 17  0     0  0            999 V2000
    2.1337    0.0378    0.5781 C   0  0  0  0  0  0  0  0  0  0  0  0
    0.9529   -0.7506    0.0240 C   0  0  0  0  0  0  0  0  0  0  0  0
   -0.4029   -0.0064   -0.0888 C   0  0  0  0  0  0  0  0  0  0  0  0
   -0.3569    1.4502    0.3855 C   0  0  0  0  0  0  0  0  0  0  0  0
   -1.4798   -0.7579    0.7067 C   0  0  0  0  0  0  0  0  0  0  0  0
   -0.7275   -0.0391   -1.4810 O   0  0  0  0  0  0  0  0  0  0  0  0
    2.3538    0.9066   -0.0352 H   0  0  0  0  0  0  0  0  0  0  0  0
    3.0127   -0.6026    0.5833 H   0  0  0  0  0  0  0  0  0  0  0  0
    1.9475    0.3642    1.5975 H   0  0  0  0  0  0  0  0  0  0  0  0
    0.8132   -1.6412    0.6384 H   0  0  0  0  0  0  0  0  0  0  0  0
    1.1974   -1.0868   -0.9858 H   0  0  0  0  0  0  0  0  0  0  0  0
   -1.3447    1.8969    0.2876 H   0  0  0  0  0  0  0  0  0  0  0  0
   -0.0591    1.5053    1.4271 H   0  0  0  0  0  0  0  0  0  0  0  0
    0.3399    2.0246   -0.2183 H   0  0  0  0  0  0  0  0  0  0  0  0
   -1.2061   -0.7987    1.7570 H   0  0  0  0  0  0  0  0  0  0  0  0
   -2.4421   -0.2571    0.6183 H   0  0  0  0  0  0  0  0  0  0  0  0
   -1.5805   -1.7717    0.3257 H   0  0  0  0  0  0  0  0  0  0  0  0
   -1.5764    0.4026   -1.6194 H   0  0  0  0  0  0  0  0  0  0  0  0
  1  2  1  0  0  0  0
  2  3  1  0  0  0  0
  3  4  1  0  0  0  0
  3  5  1  0  0  0  0
  3  6  1  0  0  0  0
  1  7  1  0  0  0  0
  1  8  1  0  0  0  0
  1  9  1  0  0  0  0
  2 10  1  0  0  0  0
  2 11  1  0  0  0  0
  4 12  1  0  0  0  0
  4 13  1  0  0  0  0
  4 14  1  0  0  0  0
  5 15  1  0  0  0  0
  5 16  1  0  0  0  0
  5 17  1  0  0  0  0
  6 18  1  0  0  0  0
M  END
