 xtb: 6.7.1 (edcfbbe)
          04062518003D

 24 24  0     0  0            999 V2000
   -1.7486   -1.0047   -0.7192 C   0  0  0  0  0  0  0  0  0  0  0  0
   -1.0681   -0.4435    0.5462 C   0  0  0  0  0  0  0  0  0  0  0  0
   -1.7694   -0.5455    1.3835 H   0  0  0  0  0  0  0  0  0  0  0  0
   -0.6947    1.0452    0.4213 C   0  0  0  0  0  0  0  0  0  0  0  0
   -1.5356    1.5725   -0.0422 H   0  0  0  0  0  0  0  0  0  0  0  0
    0.5669    1.2590   -0.4435 C   0  0  0  0  0  0  0  0  0  0  0  0
    0.9289    2.2758   -0.2351 H   0  0  0  0  0  0  0  0  0  0  0  0
    1.6935    0.3132    0.0054 C   0  0  0  0  0  0  0  0  0  0  0  0
    2.4595    0.3114   -0.7815 H   0  0  0  0  0  0  0  0  0  0  0  0
    1.2115   -1.1403    0.1727 C   0  0  0  0  0  0  0  0  0  0  0  0
    1.9539   -1.6804    0.7852 H   0  0  0  0  0  0  0  0  0  0  0  0
    0.0425   -1.2434    0.9438 O   0  0  0  0  0  0  0  0  0  0  0  0
    1.1054   -1.7159   -1.0891 O   0  0  0  0  0  0  0  0  0  0  0  0
    2.1864    0.8209    1.2211 O   0  0  0  0  0  0  0  0  0  0  0  0
    0.3239    1.0757   -1.8153 O   0  0  0  0  0  0  0  0  0  0  0  0
   -0.5369    1.6470    1.6837 O   0  0  0  0  0  0  0  0  0  0  0  0
   -3.1018   -0.6289   -0.8161 O   0  0  0  0  0  0  0  0  0  0  0  0
   -1.7572   -2.0940   -0.6367 H   0  0  0  0  0  0  0  0  0  0  0  0
   -1.1836   -0.7175   -1.6115 H   0  0  0  0  0  0  0  0  0  0  0  0
    0.9191   -2.6635   -1.0093 H   0  0  0  0  0  0  0  0  0  0  0  0
    2.9987    0.3603    1.4757 H   0  0  0  0  0  0  0  0  0  0  0  0
    0.0332    1.9083   -2.2125 H   0  0  0  0  0  0  0  0  0  0  0  0
    0.2854    1.3215    2.0845 H   0  0  0  0  0  0  0  0  0  0  0  0
   -3.1718    0.3107   -1.0301 H   0  0  0  0  0  0  0  0  0  0  0  0
  1  2  1  0  0  0  0
  2  3  1  0  0  0  0
  2  4  1  0  0  0  0
  4  5  1  0  0  0  0
  4  6  1  0  0  0  0
  6  7  1  0  0  0  0
  6  8  1  0  0  0  0
  8  9  1  0  0  0  0
  8 10  1  0  0  0  0
 10 11  1  0  0  0  0
  2 12  1  0  0  0  0
 10 12  1  0  0  0  0
 10 13  1  0  0  0  0
  8 14  1  0  0  0  0
  6 15  1  0  0  0  0
  4 16  1  0  0  0  0
  1 17  1  0  0  0  0
  1 18  1  0  0  0  0
  1 19  1  0  0  0  0
 13 20  1  0  0  0  0
 14 21  1  0  0  0  0
 15 22  1  0  0  0  0
 16 23  1  0  0  0  0
 17 24  1  0  0  0  0
M  END
