14
 xtb: 6.7.1 (edcfbbe)
C           -2.29426159930876       -0.13628827434311       -0.55400064055214
C           -1.28601203138486       -0.63752655016587        0.48794233310428
C            0.02360068506778        0.07643100573519        0.32199998585341
O            0.20144216111034        1.25973702230930        0.56397006810892
O            0.99256739943610       -0.72584634469918       -0.16179596751876
C            2.27820021950179       -0.09369443211299       -0.39430387985224
H           -2.45256052339519        0.94117919508273       -0.45622553866749
H           -1.94307624128837       -0.34580011852953       -1.56878135332025
H           -3.25406020598421       -0.63941523545942       -0.41223160496968
H           -1.13913862089195       -1.71558757588041        0.39710250386500
H           -1.65266947243415       -0.41697534059853        1.49555378087048
H            2.92178067492923       -0.88292583858207       -0.78125394265371
H            2.67922603181966        0.30096955000736        0.54220241763723
H            2.17573891086053        0.70923636964045       -1.12828886949063
