 xtb: 6.7.1 (edcfbbe)
          04032521043D

 24 25  0     0  0            999 V2000
   -3.0310   -1.4644   -0.0213 C   0  0  0  0  0  0  0  0  0  0  0  0
   -1.7347   -0.7149   -0.0098 C   0  0  0  0  0  0  0  0  0  0  0  0
   -0.5406   -1.3857   -0.0405 C   0  0  0  0  0  0  0  0  0  0  0  0
    0.6962   -0.7105   -0.0302 C   0  0  0  0  0  0  0  0  0  0  0  0
    1.9303   -1.3917   -0.0610 C   0  0  0  0  0  0  0  0  0  0  0  0
    3.1096   -0.7001   -0.0489 C   0  0  0  0  0  0  0  0  0  0  0  0
    3.1079    0.7031   -0.0057 C   0  0  0  0  0  0  0  0  0  0  0  0
    1.9271    1.3914    0.0247 C   0  0  0  0  0  0  0  0  0  0  0  0
    0.6946    0.7067    0.0134 C   0  0  0  0  0  0  0  0  0  0  0  0
   -0.5438    1.3784    0.0440 C   0  0  0  0  0  0  0  0  0  0  0  0
   -1.7363    0.7041    0.0334 C   0  0  0  0  0  0  0  0  0  0  0  0
   -3.0344    1.4500    0.0670 C   0  0  0  0  0  0  0  0  0  0  0  0
   -3.6132   -1.2349    0.8698 H   0  0  0  0  0  0  0  0  0  0  0  0
   -3.6268   -1.1844   -0.8886 H   0  0  0  0  0  0  0  0  0  0  0  0
   -2.8528   -2.5359   -0.0534 H   0  0  0  0  0  0  0  0  0  0  0  0
   -0.5315   -2.4668   -0.0738 H   0  0  0  0  0  0  0  0  0  0  0  0
    1.9268   -2.4721   -0.0942 H   0  0  0  0  0  0  0  0  0  0  0  0
    4.0518   -1.2277   -0.0725 H   0  0  0  0  0  0  0  0  0  0  0  0
    4.0489    1.2334    0.0034 H   0  0  0  0  0  0  0  0  0  0  0  0
    1.9210    2.4717    0.0580 H   0  0  0  0  0  0  0  0  0  0  0  0
   -0.5373    2.4594    0.0770 H   0  0  0  0  0  0  0  0  0  0  0  0
   -3.6304    1.2199   -0.8148 H   0  0  0  0  0  0  0  0  0  0  0  0
   -3.6151    1.1672    0.9436 H   0  0  0  0  0  0  0  0  0  0  0  0
   -2.8587    2.5219    0.0977 H   0  0  0  0  0  0  0  0  0  0  0  0
  1  2  1  0  0  0  0
  2  3  2  0  0  0  0
  3  4  4  0  0  0  0
  4  5  4  0  0  0  0
  5  6  2  0  0  0  0
  6  7  4  0  0  0  0
  7  8  2  0  0  0  0
  4  9  4  0  0  0  0
  8  9  4  0  0  0  0
  9 10  4  0  0  0  0
  2 11  4  0  0  0  0
 10 11  2  0  0  0  0
 11 12  1  0  0  0  0
  1 13  1  0  0  0  0
  1 14  1  0  0  0  0
  1 15  1  0  0  0  0
  3 16  1  0  0  0  0
  5 17  1  0  0  0  0
  6 18  1  0  0  0  0
  7 19  1  0  0  0  0
  8 20  1  0  0  0  0
 10 21  1  0  0  0  0
 12 22  1  0  0  0  0
 12 23  1  0  0  0  0
 12 24  1  0  0  0  0
M  END
