 xtb: 6.7.1 (edcfbbe)
          04062518003D

 24 24  0     0  0            999 V2000
   -1.7689   -0.9669   -0.9024 C   0  0  0  0  0  0  0  0  0  0  0  0
   -1.2796   -0.1963    0.3376 C   0  0  0  0  0  0  0  0  0  0  0  0
   -2.1182   -0.1228    1.0403 H   0  0  0  0  0  0  0  0  0  0  0  0
   -0.8017    1.2446    0.0249 C   0  0  0  0  0  0  0  0  0  0  0  0
   -1.0531    1.5048   -1.0111 H   0  0  0  0  0  0  0  0  0  0  0  0
    0.7207    1.3672    0.1499 C   0  0  0  0  0  0  0  0  0  0  0  0
    0.9710    1.5108    1.2117 H   0  0  0  0  0  0  0  0  0  0  0  0
    1.3962    0.0883   -0.3526 C   0  0  0  0  0  0  0  0  0  0  0  0
    1.0785   -0.0971   -1.3883 H   0  0  0  0  0  0  0  0  0  0  0  0
    0.9636   -1.0956    0.5237 C   0  0  0  0  0  0  0  0  0  0  0  0
    1.6375   -1.1479    1.3929 H   0  0  0  0  0  0  0  0  0  0  0  0
   -0.3168   -0.9401    1.0817 O   0  0  0  0  0  0  0  0  0  0  0  0
    1.0645   -2.2536   -0.2522 O   0  0  0  0  0  0  0  0  0  0  0  0
    2.7854    0.2882   -0.2909 O   0  0  0  0  0  0  0  0  0  0  0  0
    1.1283    2.4764   -0.6062 O   0  0  0  0  0  0  0  0  0  0  0  0
   -1.3667    2.1741    0.9175 O   0  0  0  0  0  0  0  0  0  0  0  0
   -2.6601   -1.9992   -0.5568 O   0  0  0  0  0  0  0  0  0  0  0  0
   -0.9122   -1.3693   -1.4558 H   0  0  0  0  0  0  0  0  0  0  0  0
   -2.3346   -0.3003   -1.5549 H   0  0  0  0  0  0  0  0  0  0  0  0
    0.9943   -3.0438    0.3040 H   0  0  0  0  0  0  0  0  0  0  0  0
    3.2421   -0.4522   -0.7153 H   0  0  0  0  0  0  0  0  0  0  0  0
    2.0979    2.5055   -0.5988 H   0  0  0  0  0  0  0  0  0  0  0  0
   -2.2752    2.3788    0.6553 H   0  0  0  0  0  0  0  0  0  0  0  0
   -2.2287   -2.5897    0.0763 H   0  0  0  0  0  0  0  0  0  0  0  0
  1  2  1  0  0  0  0
  2  3  1  0  0  0  0
  2  4  1  0  0  0  0
  4  5  1  0  0  0  0
  4  6  1  0  0  0  0
  6  7  1  0  0  0  0
  6  8  1  0  0  0  0
  8  9  1  0  0  0  0
  8 10  1  0  0  0  0
 10 11  1  0  0  0  0
  2 12  1  0  0  0  0
 10 12  1  0  0  0  0
 10 13  1  0  0  0  0
  8 14  1  0  0  0  0
  6 15  1  0  0  0  0
  4 16  1  0  0  0  0
  1 17  1  0  0  0  0
  1 18  1  0  0  0  0
  1 19  1  0  0  0  0
 13 20  1  0  0  0  0
 14 21  1  0  0  0  0
 15 22  1  0  0  0  0
 16 23  1  0  0  0  0
 17 24  1  0  0  0  0
M  END
