22
 xtb: 6.7.1 (edcfbbe)
C            1.23411277533624        0.72609531331484       -1.46032437292920
C            2.61112007963672        0.83917161039262       -1.58782008300167
C            3.44109847122971        0.42384289163222       -0.55167896263699
C            2.88756825177830       -0.10688056366247        0.61483824999327
C            1.50855485787808       -0.22246751047577        0.74284355640927
C            0.68066916306339        0.19453356841568       -0.29606557789287
C           -0.79168703244599        0.06881693782828       -0.15294411724325
C           -1.57543332866002        1.17952371585088        0.18032168146527
C           -2.96018100555706        1.05801135432796        0.31279317211501
C           -3.57950457257928       -0.16784499871673        0.12148098415658
C           -2.81326940584552       -1.27576707644121       -0.20727025531255
C           -1.42855654890921       -1.16239453231099       -0.34741496085291
Cl          -0.47801159025235       -2.55136174035519       -0.78542988894454
Cl          -3.61886345409131       -2.79933780334830       -0.44430660835976
Cl          -3.94719526404821        2.42971837932842        0.72576125650904
Cl          -0.80330414679815        2.71452491868441        0.44883057958909
Cl           3.90108405277888       -0.63542517206549        1.93315592062391
Cl           5.16909958585617        0.57801794532349       -0.73648898686142
H            0.59070198259259        1.05258852439708       -2.27002211375515
H            3.04617273840749        1.25082964134777       -2.49125230636330
H            1.08342635309241       -0.63655906276752        1.65023140974233
H           -4.65348965205173       -0.25948367407278        0.22771344280244
