 xtb: 6.7.1 (edcfbbe)
          04032521183D

 12 11  0     0  0            999 V2000
    1.8113   -0.0430    1.0023 C   0  0  0  0  0  0  0  0  0  0  0  0
    0.9741   -0.3458   -0.2371 C   0  0  0  0  0  0  0  0  0  0  0  0
    1.0435   -1.4109   -0.5092 H   0  0  0  0  0  0  0  0  0  0  0  0
   -0.5028   -0.0899    0.0620 C   0  0  0  0  0  0  0  0  0  0  0  0
   -1.2952   -0.3431   -0.9929 F   0  0  0  0  0  0  0  0  0  0  0  0
   -0.9574   -0.8718    1.0601 F   0  0  0  0  0  0  0  0  0  0  0  0
   -0.7556    1.1729    0.4324 F   0  0  0  0  0  0  0  0  0  0  0  0
    1.2717    0.4742   -1.3366 O   0  0  0  0  0  0  0  0  0  0  0  0
    2.8513   -0.2862    0.8096 H   0  0  0  0  0  0  0  0  0  0  0  0
    1.4599   -0.6376    1.8405 H   0  0  0  0  0  0  0  0  0  0  0  0
    1.7287    1.0122    1.2518 H   0  0  0  0  0  0  0  0  0  0  0  0
    2.2168    0.4070   -1.5436 H   0  0  0  0  0  0  0  0  0  0  0  0
  1  2  1  0  0  0  0
  2  3  1  0  0  0  0
  2  4  1  0  0  0  0
  4  5  1  0  0  0  0
  4  6  1  0  0  0  0
  4  7  1  0  0  0  0
  2  8  1  0  0  0  0
  1  9  1  0  0  0  0
  1 10  1  0  0  0  0
  1 11  1  0  0  0  0
  8 12  1  0  0  0  0
M  END
