 xtb: 6.7.1 (edcfbbe)
          04032521523D

 13 12  0     0  0            999 V2000
   -0.7290   -1.1722   -0.0888 C   0  0  0  0  0  0  0  0  0  0  0  0
   -0.0000   -0.0000    0.3535 N   0  0  0  0  0  0  0  0  0  0  0  0
   -0.6507    1.2174   -0.0886 C   0  0  0  0  0  0  0  0  0  0  0  0
    1.3796   -0.0452   -0.0886 C   0  0  0  0  0  0  0  0  0  0  0  0
   -0.7777   -1.2506   -1.1870 H   0  0  0  0  0  0  0  0  0  0  0  0
   -1.7437   -1.1286    0.3024 H   0  0  0  0  0  0  0  0  0  0  0  0
   -0.2411   -2.0630    0.3024 H   0  0  0  0  0  0  0  0  0  0  0  0
   -0.1055    2.0743    0.3026 H   0  0  0  0  0  0  0  0  0  0  0  0
   -1.6660    1.2403    0.3029 H   0  0  0  0  0  0  0  0  0  0  0  0
   -0.6944    1.2989   -1.1868 H   0  0  0  0  0  0  0  0  0  0  0  0
    1.9071    0.8227    0.3029 H   0  0  0  0  0  0  0  0  0  0  0  0
    1.4721   -0.0480   -1.1868 H   0  0  0  0  0  0  0  0  0  0  0  0
    1.8492   -0.9458    0.3026 H   0  0  0  0  0  0  0  0  0  0  0  0
  1  2  1  0  0  0  0
  2  3  1  0  0  0  0
  2  4  1  0  0  0  0
  1  5  1  0  0  0  0
  1  6  1  0  0  0  0
  1  7  1  0  0  0  0
  3  8  1  0  0  0  0
  3  9  1  0  0  0  0
  3 10  1  0  0  0  0
  4 11  1  0  0  0  0
  4 12  1  0  0  0  0
  4 13  1  0  0  0  0
M  END
