24
 xtb: 6.7.1 (edcfbbe)
C           -3.14331992825809        0.30564384095153        0.60422585730666
O           -1.91295122654327        0.64008325531607       -0.08655243433789
C           -1.08860956282592       -0.39124584683429       -0.35359235975389
O           -1.35618781717055       -1.53935985678845       -0.03876622721397
C            0.14014879277241        0.04576111228636       -1.12476486559556
C            1.19664691951549       -1.06519341975801       -1.17541334888129
C            1.88292609237101       -1.26881138981007        0.17853181405080
C            2.47166336955875        0.03974304303142        0.70999972793883
C            1.40264948769661        1.13171382366134        0.78256623084094
C            0.75606349671353        1.34983044578261       -0.58520654472255
H           -3.73228347741740       -0.39813418423372        0.01109625990303
H           -3.67673004595227        1.24898976274522        0.71506597360748
H           -2.92005663777317       -0.12378701165986        1.58385552678521
H           -0.23431251326287        0.23483951550692       -2.14161237398353
H            0.74749236445698       -1.99961704792100       -1.52570599199180
H            1.94744131132317       -0.76880620170545       -1.91814432388831
H            1.15553593951462       -1.65533203560504        0.90422504166537
H            2.66789368202987       -2.02752200986093        0.08144948582647
H            2.92012151567454       -0.12160374017289        1.69713989066466
H            3.27754633882807        0.37419926021865        0.04137966175145
H            0.63201041207399        0.83953747053555        1.51152563960113
H            1.83854849536678        2.07116927836623        1.14094867792524
H            0.00674144183610        2.14462721431020       -0.54637957331772
H            1.52592965777496        1.66776007604891       -1.29955770588606
