 xtb: 6.7.1 (edcfbbe)
          04062520243D

 27 27  0     0  0            999 V2000
   -3.4291    0.5953    0.0158 C   0  0  0  0  0  0  0  0  0  0  0  0
   -1.9338    0.5083    0.0449 C   0  0  0  0  0  0  0  0  0  0  0  0
   -1.1405    1.4889   -0.3647 C   0  0  0  0  0  0  0  0  0  0  0  0
    0.3552    1.4415   -0.3518 C   0  0  0  0  0  0  0  0  0  0  0  0
    0.8763    0.0058   -0.2322 C   0  0  0  0  0  0  0  0  0  0  0  0
    0.6627   -0.5109   -1.1739 H   0  0  0  0  0  0  0  0  0  0  0  0
    0.1101   -0.7028    0.8887 C   0  0  0  0  0  0  0  0  0  0  0  0
   -1.3822   -0.8053    0.5556 C   0  0  0  0  0  0  0  0  0  0  0  0
   -1.9331   -1.0975    1.4586 H   0  0  0  0  0  0  0  0  0  0  0  0
   -1.6566   -1.8639   -0.3559 O   0  0  0  0  0  0  0  0  0  0  0  0
    2.3715   -0.0280   -0.0060 C   0  0  0  0  0  0  0  0  0  0  0  0
    2.9365    0.4581    1.0881 C   0  0  0  0  0  0  0  0  0  0  0  0
    3.1749   -0.6466   -1.1087 C   0  0  0  0  0  0  0  0  0  0  0  0
   -3.8405   -0.3000   -0.4481 H   0  0  0  0  0  0  0  0  0  0  0  0
   -3.7613    1.4718   -0.5334 H   0  0  0  0  0  0  0  0  0  0  0  0
   -3.8185    0.6486    1.0322 H   0  0  0  0  0  0  0  0  0  0  0  0
   -1.5758    2.4146   -0.7178 H   0  0  0  0  0  0  0  0  0  0  0  0
    0.7445    1.9052   -1.2614 H   0  0  0  0  0  0  0  0  0  0  0  0
    0.7209    2.0355    0.4912 H   0  0  0  0  0  0  0  0  0  0  0  0
    0.5066   -1.7083    1.0433 H   0  0  0  0  0  0  0  0  0  0  0  0
    0.2214   -0.1450    1.8184 H   0  0  0  0  0  0  0  0  0  0  0  0
   -1.2089   -1.6751   -1.1918 H   0  0  0  0  0  0  0  0  0  0  0  0
    4.0028    0.4296    1.2342 H   0  0  0  0  0  0  0  0  0  0  0  0
    2.3648    0.9017    1.8851 H   0  0  0  0  0  0  0  0  0  0  0  0
    2.9945   -0.1194   -2.0447 H   0  0  0  0  0  0  0  0  0  0  0  0
    4.2377   -0.6135   -0.8863 H   0  0  0  0  0  0  0  0  0  0  0  0
    2.8782   -1.6855   -1.2489 H   0  0  0  0  0  0  0  0  0  0  0  0
  1  2  1  0  0  0  0
  2  3  2  0  0  0  0
  3  4  1  0  0  0  0
  4  5  1  0  0  0  0
  5  6  1  0  0  0  0
  5  7  1  0  0  0  0
  2  8  1  0  0  0  0
  7  8  1  0  0  0  0
  8  9  1  0  0  0  0
  8 10  1  0  0  0  0
  5 11  1  0  0  0  0
 11 12  2  0  0  0  0
 11 13  1  0  0  0  0
  1 14  1  0  0  0  0
  1 15  1  0  0  0  0
  1 16  1  0  0  0  0
  3 17  1  0  0  0  0
  4 18  1  0  0  0  0
  4 19  1  0  0  0  0
  7 20  1  0  0  0  0
  7 21  1  0  0  0  0
 10 22  1  0  0  0  0
 12 23  1  0  0  0  0
 12 24  1  0  0  0  0
 13 25  1  0  0  0  0
 13 26  1  0  0  0  0
 13 27  1  0  0  0  0
M  END
