 xtb: 6.7.1 (edcfbbe)
          04062518003D

 24 24  0     0  0            999 V2000
   -2.1912   -1.1893   -0.0020 C   0  0  0  0  0  0  0  0  0  0  0  0
   -1.1964   -0.3306    0.7925 C   0  0  0  0  0  0  0  0  0  0  0  0
   -1.6811   -0.0565    1.7358 H   0  0  0  0  0  0  0  0  0  0  0  0
   -0.8584    0.9750    0.0497 C   0  0  0  0  0  0  0  0  0  0  0  0
   -1.0607    0.8497   -1.0271 H   0  0  0  0  0  0  0  0  0  0  0  0
    0.6297    1.2907    0.2282 C   0  0  0  0  0  0  0  0  0  0  0  0
    0.8527    1.4084    1.2942 H   0  0  0  0  0  0  0  0  0  0  0  0
    1.4580    0.1316   -0.3348 C   0  0  0  0  0  0  0  0  0  0  0  0
    1.2889    0.0634   -1.4234 H   0  0  0  0  0  0  0  0  0  0  0  0
    1.0158   -1.2090    0.3044 C   0  0  0  0  0  0  0  0  0  0  0  0
    1.8494   -1.5785    0.9139 H   0  0  0  0  0  0  0  0  0  0  0  0
   -0.0402   -1.0455    1.2182 O   0  0  0  0  0  0  0  0  0  0  0  0
    0.7678   -2.1906   -0.6430 O   0  0  0  0  0  0  0  0  0  0  0  0
    2.8289    0.3039   -0.0786 O   0  0  0  0  0  0  0  0  0  0  0  0
    0.9711    2.5166   -0.3722 O   0  0  0  0  0  0  0  0  0  0  0  0
   -1.6748    1.9992    0.5637 O   0  0  0  0  0  0  0  0  0  0  0  0
   -1.7410   -1.3693   -1.3336 O   0  0  0  0  0  0  0  0  0  0  0  0
   -3.1512   -0.6638    0.0025 H   0  0  0  0  0  0  0  0  0  0  0  0
   -2.2912   -2.1540    0.5064 H   0  0  0  0  0  0  0  0  0  0  0  0
   -0.0755   -1.9839   -1.1065 H   0  0  0  0  0  0  0  0  0  0  0  0
    3.0667    1.2286   -0.2572 H   0  0  0  0  0  0  0  0  0  0  0  0
    0.8146    2.4666   -1.3282 H   0  0  0  0  0  0  0  0  0  0  0  0
   -1.2477    2.8531    0.3878 H   0  0  0  0  0  0  0  0  0  0  0  0
   -2.3989   -1.8844   -1.8229 H   0  0  0  0  0  0  0  0  0  0  0  0
  1  2  1  0  0  0  0
  2  3  1  0  0  0  0
  2  4  1  0  0  0  0
  4  5  1  0  0  0  0
  4  6  1  0  0  0  0
  6  7  1  0  0  0  0
  6  8  1  0  0  0  0
  8  9  1  0  0  0  0
  8 10  1  0  0  0  0
 10 11  1  0  0  0  0
  2 12  1  0  0  0  0
 10 12  1  0  0  0  0
 10 13  1  0  0  0  0
  8 14  1  0  0  0  0
  6 15  1  0  0  0  0
  4 16  1  0  0  0  0
  1 17  1  0  0  0  0
  1 18  1  0  0  0  0
  1 19  1  0  0  0  0
 13 20  1  0  0  0  0
 14 21  1  0  0  0  0
 15 22  1  0  0  0  0
 16 23  1  0  0  0  0
 17 24  1  0  0  0  0
M  END
