 xtb: 6.7.1 (edcfbbe)
          04042519523D

 14 13  0     0  0            999 V2000
   -2.2146   -0.0843   -0.6621 C   0  0  0  0  0  0  0  0  0  0  0  0
   -1.4102    0.2194    0.5927 C   0  0  0  0  0  0  0  0  0  0  0  0
   -0.1120    0.7381    0.2618 O   0  0  0  0  0  0  0  0  0  0  0  0
    0.8792   -0.1189    0.0432 C   0  0  0  0  0  0  0  0  0  0  0  0
    0.7588   -1.3231    0.1414 O   0  0  0  0  0  0  0  0  0  0  0  0
    2.1449    0.5891   -0.3361 C   0  0  0  0  0  0  0  0  0  0  0  0
   -3.2121   -0.4061   -0.3811 H   0  0  0  0  0  0  0  0  0  0  0  0
   -2.2852    0.8034   -1.2849 H   0  0  0  0  0  0  0  0  0  0  0  0
   -1.7343   -0.8786   -1.2292 H   0  0  0  0  0  0  0  0  0  0  0  0
   -1.2817   -0.6843    1.1964 H   0  0  0  0  0  0  0  0  0  0  0  0
   -1.8790    1.0067    1.1837 H   0  0  0  0  0  0  0  0  0  0  0  0
    2.0878    1.6319   -0.0441 H   0  0  0  0  0  0  0  0  0  0  0  0
    2.2645    0.5221   -1.4154 H   0  0  0  0  0  0  0  0  0  0  0  0
    2.9915    0.0943    0.1300 H   0  0  0  0  0  0  0  0  0  0  0  0
  1  2  1  0  0  0  0
  2  3  1  0  0  0  0
  3  4  1  0  0  0  0
  4  5  2  0  0  0  0
  4  6  1  0  0  0  0
  1  7  1  0  0  0  0
  1  8  1  0  0  0  0
  1  9  1  0  0  0  0
  2 10  1  0  0  0  0
  2 11  1  0  0  0  0
  6 12  1  0  0  0  0
  6 13  1  0  0  0  0
  6 14  1  0  0  0  0
M  END
