24
CONF1
C -3.5588559615 0.3680370423 -0.2498570724
O -2.1789369326 0.4483069031 -0.6193100388
C -1.3070258322 -0.2433278717 0.1077181271
O -1.6333221773 -0.9380197241 1.0472205898
C 0.1089988022 -0.0141201829 -0.3591849441
C 0.9545782021 -1.2768657666 -0.1897348720
C 2.4032792117 -1.0081694167 -0.5837407092
C 2.9837772921 0.1314570840 0.2476669613
C 2.1453507701 1.3937638020 0.0735584246
C 0.6971943981 1.1345682393 0.4767586432
H -3.6982690570 0.7659583758 0.7558210813
H -3.8890183941 -0.6711378872 -0.2690743248
H -4.0933916640 0.9629160431 -0.9834240245
H 0.0758444394 0.2898384112 -1.4087443643
H 0.9001691753 -1.5946859547 0.8535564540
H 0.5398330257 -2.0799099073 -0.8023999905
H 2.9929898043 -1.9144099284 -0.4390816933
H 2.4458603253 -0.7436224276 -1.6423014606
H 2.9904537116 -0.1564370600 1.3008946230
H 4.0137523384 0.3251632668 -0.0555894276
H 2.5517085244 2.2001946403 0.6856726419
H 2.1783165297 1.7114194597 -0.9702965351
H 0.6505330819 0.8593896452 1.5330543079
H 0.0975387718 2.0352602034 0.3314039298
24
CONF4
C -3.0363738591 0.6972065270 0.6378225683
O -1.8440152641 0.7247523167 -0.1491713234
C -1.0696883137 -0.3564835664 -0.1221290368
O -1.3438364181 -1.3383069771 0.5360033973
C 0.1306957828 -0.2231181309 -1.0369451182
C 1.1660995818 -1.3126149305 -0.7480981236
C 1.8484941097 -1.0809396808 0.5979864581
C 2.4820084149 0.3057095064 0.6542817169
C 1.4279251205 1.3801856152 0.4054237566
C 0.7650617869 1.1696402878 -0.9526586103
H -2.7930801280 0.4849627598 1.6798858143
H -3.7093467413 -0.0772730591 0.2675430539
H -3.4796566613 1.6822995077 0.5323676584
H -0.2690538356 -0.3657924713 -2.0485636216
H 0.6737521568 -2.2866258096 -0.7455159423
H 1.9136291026 -1.3041287851 -1.5425545352
H 1.1070388778 -1.1794084051 1.3940743558
H 2.6091687051 -1.8472101568 0.7563662725
H 2.9488088537 0.4596448218 1.6286865575
H 3.2602964478 0.3794673206 -0.1081571721
H 0.6703429810 1.3337732718 1.1919126366
H 1.8866572530 2.3696870781 0.4400523647
H 0.0045663148 1.9312847906 -1.1246210328
H 1.5189604814 1.2520440681 -1.7371693693
24
CONF2
C -3.5848262522 0.2843593024 -0.3294600629
O -2.1945081214 0.3728106369 -0.6608857339
C -1.3063091627 -0.2058082720 0.1384431127
O -1.6040991590 -0.8179047294 1.1430738327
C 0.1045943542 0.0330150795 -0.3411768444
C 0.9276234249 -1.2543075180 -0.2490947958
C 2.3760452067 -0.9943806465 -0.6496662372
C 2.9908102830 0.0882226807 0.2315714999
C 2.1771352666 1.3745919045 0.1330797297
C 0.7290605263 1.1245662319 0.5418635943
H -3.6983017880 0.0313696204 0.7252169611
H -4.0430606593 -0.4872152876 -0.9472062781
H -4.0200191474 1.2558693812 -0.5486158823
H 0.0582850386 0.3850552569 -1.3749771508
H 0.8807826937 -1.6231068219 0.7777390501
H 0.4890296491 -2.0159333530 -0.8971442166
H 2.9481898740 -1.9188745401 -0.5606762882
H 2.4100208962 -0.6756630523 -1.6934724429
H 3.0035362121 -0.2537098767 1.2685061850
H 4.0210182955 0.2759676172 -0.0746842032
H 2.6076698285 2.1403179535 0.7799266101
H 2.2041007142 1.7445049409 -0.8936737250
H 0.6875750607 0.7967843213 1.5831528496
H 0.1476492640 2.0443862242 0.4513332914
24
CONF3
C -3.1684447020 -0.0192775532 1.0194754405
O -1.7594336431 0.0087316238 0.7811101756
C -1.3479008859 -0.1285976447 -0.4726166078
O -2.1113168034 -0.2753320795 -1.4062125923
C 0.1553127299 -0.0765438045 -0.5934425287
C 0.7968214076 -1.1999984163 0.2304267821
C 2.3164172712 -1.1382756953 0.1102017833
C 2.8355769982 0.2177678741 0.5781006550
C 2.1950685740 1.3395547516 -0.2334987911
C 0.6750609210 1.2854818202 -0.1152365655
H -3.2866296806 0.1072686165 2.0909346501
H -3.5838625442 -0.9715522722 0.6877861456
H -3.6551439921 0.7887389374 0.4720455348
H 0.3976488158 -0.2113397298 -1.6521264808
H 0.5025345682 -1.0832712125 1.2747768692
H 0.4310910052 -2.1667954109 -0.1219000913
H 2.7604697871 -1.9351156663 0.7085149149
H 2.6039947751 -1.2986642449 -0.9309240353
H 2.5948502494 0.3525250944 1.6343811958
H 3.9207313814 0.2561672992 0.4718813273
H 2.5519506210 2.3077386177 0.1206147892
H 2.4804139312 1.2386052665 -1.2826438213
H 0.3789015556 1.4298540459 0.9251986333
H 0.2230216378 2.0798084357 -0.7130707547
24
CONF6
C -3.4297163691 0.6270361518 0.2420328635
O -2.0252057575 0.7385275102 -0.0034843933
C -1.3299328024 -0.3873581247 -0.1050952845
O -1.8381522952 -1.4848725703 0.0079229332
C 0.1367076469 -0.1537595227 -0.3939318538
C 0.9840603880 -1.2450840443 0.2676322434
C 2.4547541658 -1.0647823493 -0.0928192739
C 2.9395904900 0.3191153124 0.3297180827
C 2.0949120437 1.4046438917 -0.3308519278
C 0.6197002063 1.2351106864 0.0248154686
H -3.6085827874 -0.0206364310 1.1010744234
H -3.9266286223 0.2029964779 -0.6311998128
H -3.7742433779 1.6383761799 0.4331666871
H 0.2411028674 -0.2506367287 -1.4824161800
H 0.8606814384 -1.1825535518 1.3512529394
H 0.6236486349 -2.2248239657 -0.0503137907
H 3.0482430199 -1.8359176353 0.4004482331
H 2.5809038363 -1.1815781351 -1.1711090953
H 2.8647391214 0.4119046898 1.4151340984
H 3.9875605722 0.4450907253 0.0531255179
H 2.4360976661 2.3892841282 -0.0081108659
H 2.2144956966 1.3460886406 -1.4146959879
H 0.4859558904 1.3508750915 1.1021562591
H 0.0237011762 2.0010483198 -0.4718374546
24
CONF5
C -3.0585686563 0.7221953568 0.6129221991
O -1.8553550546 0.7076296717 -0.1603080541
C -1.0696928458 -0.3628735714 -0.1109722399
O -1.3191897586 -1.3412858334 0.5620898402
C 0.1268633430 -0.2214726779 -1.0311348582
C 1.1672439054 -1.3094099089 -0.7547642568
C 1.8593128910 -1.0841505864 0.5874801542
C 2.4888266316 0.3040929828 0.6477418057
C 1.4287221114 1.3759537682 0.4141537113
C 0.7581402417 1.1726349584 -0.9412525788
H -3.0675046060 1.6506322276 1.1797530449
H -3.0813859393 -0.1398330183 1.2806760487
H -3.9035662394 0.6892308923 -0.0732108089
H -0.2772127811 -0.3583553873 -2.0417142267
H 0.6778991253 -2.2849408366 -0.7541963825
H 1.9088771653 -1.2943011470 -1.5546772188
H 1.1243661530 -1.1899820234 1.3885640089
H 2.6235921865 -1.8490711037 0.7348245696
H 2.9625292170 0.4533149506 1.6195150057
H 3.2608687239 0.3857823105 -0.1202616050
H 0.6767903162 1.3194404582 1.2053888939
H 1.8833798849 2.3671741599 0.4532774939
H -0.0054597351 1.9332441839 -1.1040407052
H 1.5070651410 1.2623094976 -1.7297435995
24
CONF7
C -3.3521237228 0.2580173647 0.2988224845
O -2.1715542736 0.3701540894 -0.4999275767
C -1.0516764147 -0.1715595532 -0.0210708889
O -1.0156226674 -0.7558659272 1.0400360916
C 0.1002892254 0.0833808085 -0.9655607747
C 1.0826356185 -1.0901151682 -1.0462812884
C 1.8968834223 -1.2589989374 0.2337393528
C 2.6225324538 0.0351754648 0.5859297946
C 1.6119850518 1.1649107896 0.7572484262
C 0.8274318485 1.3699176759 -0.5342360150
H -3.1995701147 0.7478387265 1.2612575753
H -3.5873450216 -0.7931895231 0.4694999894
H -4.1372220583 0.7472097673 -0.2685976007
H -0.3487332251 0.2549805959 -1.9487770821
H 0.5337833444 -2.0101570179 -1.2574083532
H 1.7607055548 -0.9005025651 -1.8807967294
H 1.2283977791 -1.5325553445 1.0512383681
H 2.6158777464 -2.0690082545 0.0987684487
H 3.1907121357 -0.0985475277 1.5076849295
H 3.3242320410 0.2915582076 -0.2110596855
H 0.9263050111 0.9115358941 1.5691267504
H 2.1231331670 2.0918725282 1.0230895718
H 0.1008637067 2.1764467619 -0.4157401980
H 1.5173879855 1.6490507695 -1.3325451054
24
CONF8
C -3.3801861105 -0.4130383042 0.0340264332
O -2.1843165882 0.0047412661 -0.6308947339
C -1.0535495985 0.0710725292 0.0702919312
O -0.9960577320 -0.1894201373 1.2527760310
C 0.0907884797 0.4849864815 -0.8263495954
C 0.8953633448 -0.7631702016 -1.2309126961
C 1.6967071571 -1.3211744226 -0.0597312825
C 2.6397231057 -0.2554213039 0.4893531117
C 1.8355631366 0.9498751112 0.9649801071
C 1.0078380565 1.5295120610 -0.1785778580
H -3.3086683036 -0.1925625791 1.0998315049
H -3.5127601878 -1.4851071878 -0.1108164739
H -4.1957164861 0.1375311368 -0.4264437679
H -0.3678973167 0.9091095444 -1.7249171228
H 0.2163193106 -1.5229552687 -1.6237770760
H 1.5806152510 -0.4750522257 -2.0300748669
H 1.0160890014 -1.6393866466 0.7329543353
H 2.2632577639 -2.1935739522 -0.3899711562
H 3.2201301064 -0.6635343697 1.3181670477
H 3.3364397331 0.0534969350 -0.2933767422
H 1.1693563828 0.6426729486 1.7724235296
H 2.5047171562 1.7203212889 1.3522134189
H 0.4072435607 2.3652913916 0.1860495085
H 1.6794615054 1.9071368837 -0.9522346764
24
CONF9
C -3.4196462333 -0.0111984960 0.1722674957
O -2.2125048123 0.2115125649 -0.5627020575
C -1.0484406316 -0.0718447946 0.0194001599
O -0.9662234886 -0.5104582884 1.1466502282
C 0.0955649309 0.2520988993 -0.9139646211
C 1.0111933293 -0.9605729036 -1.1351708565
C 1.8304788943 -1.2994524229 0.1061304900
C 2.6472061671 -0.0911713054 0.5521391858
C 1.7150139950 1.0764489387 0.8586598124
C 0.9037181432 1.4457221952 -0.3787187220
H -3.8054093229 -1.0017429377 -0.0676668757
H -4.1182369184 0.7574727159 -0.1460820794
H -3.2208138230 0.0552059749 1.2425019378
H -0.3637968086 0.5346204468 -1.8663122833
H 0.4096606134 -1.8222478836 -1.4322405864
H 1.6876869661 -0.7202620212 -1.9577490947
H 1.1590643347 -1.5970763439 0.9133699332
H 2.4898497726 -2.1407468220 -0.1143442289
H 3.2294940290 -0.3442056029 1.4393394849
H 3.3426770007 0.1941902616 -0.2405485564
H 1.0387236874 0.7920227560 1.6671884927
H 2.2904211067 1.9436755656 1.1871703332
H 0.2268641825 2.2725602806 -0.1530118471
H 1.5824176843 1.7699065153 -1.1699218684
24
CONF10
C -2.4530030049 0.1795996059 1.4744701178
O -1.1891908053 0.1079798422 0.8103994499
C -1.1990938453 -0.1975766993 -0.4784229534
O -2.2313417897 -0.4107209018 -1.0872531668
C 0.1638229019 -0.2604272092 -1.1303141066
C 1.0517726900 -1.3567071171 -0.5201306226
C 1.6248727959 -0.9717617376 0.8397419396
C 2.3866305690 0.3457996190 0.7443922449
C 1.4552441362 1.4505729879 0.2571998223
C 0.8805854922 1.0992463417 -1.1110525439
H -3.0794446639 0.9376958350 1.0029945997
H -2.2311434282 0.4410528095 2.5043503355
H -2.9605789039 -0.7838358941 1.4145607758
H -0.0463690254 -0.5257636037 -2.1727645320
H 0.4791134429 -2.2834398004 -0.4408349310
H 1.8758813283 -1.5321115735 -1.2145346007
H 0.8182902100 -0.8697602114 1.5659348430
H 2.2903722129 -1.7661076606 1.1824253261
H 2.7961287186 0.6092325949 1.7205797650
H 3.2197932360 0.2363894679 0.0466465607
H 0.6461377343 1.5825524146 0.9757550177
H 1.9988942838 2.3940691566 0.1825602829
H 0.1891950083 1.8772358386 -1.4423840217
H 1.6964267703 1.0475585701 -1.8348123298
24
CONF11
C -2.4768647304 0.4624428955 1.3930971572
O -1.2379540256 0.3814485540 0.6819633266
C -1.1914072973 -0.3143775105 -0.4421686328
O -2.1533358172 -0.9048531616 -0.8982443317
C 0.1682999666 -0.3484509653 -1.1047920390
C 1.0672705117 -1.3799848640 -0.3990572506
C 1.6067264686 -0.8638547824 0.9299662895
C 2.3794451693 0.4335228543 0.7174808940
C 1.4595841373 1.4937159370 0.1220228294
C 0.8656712523 1.0148225328 -1.2000215094
H -2.9160303089 1.4435023069 1.2152625063
H -2.2450888471 0.3368143555 2.4479534936
H -3.1559166793 -0.3174649886 1.0469359701
H -0.0325228075 -0.7132115220 -2.1185472410
H 0.5059807198 -2.3056282107 -0.2516587264
H 1.9057576399 -1.5983993325 -1.0629232387
H 0.7819334784 -0.6832064054 1.6206728626
H 2.2566772305 -1.6217173891 1.3707341874
H 2.7844475317 0.7856969113 1.6672768732
H 3.2165487661 0.2508795962 0.0401032660
H 0.6595684073 1.7138423874 0.8280603904
H 2.0171461165 2.4152009407 -0.0552077511
H 0.1610194323 1.7560926168 -1.5823772199
H 1.6715825977 0.9134795897 -1.9300003776
