24
CONF2
C -3.5719369784 0.4029566064 -0.2410504748
O -2.1762172719 0.5269923953 -0.6163249086
C -1.3185208252 -0.2929603646 0.0258776138
O -1.6826625323 -1.1110865713 0.8552809154
C 0.1076721455 -0.0318290810 -0.3726673100
C 0.9650323869 -1.2967055618 -0.2770530151
C 2.4166250844 -0.9920198310 -0.6495794766
C 2.9922956497 0.1135538544 0.2370252615
C 2.1324700861 1.3762355906 0.1668309156
C 0.6778359771 1.0814937878 0.5352143545
H -3.6983135333 0.6203396331 0.8225437216
H -3.9344258819 -0.6034456270 -0.4643287570
H -4.1001661820 1.1397930215 -0.8451906763
H 0.1085565947 0.3392872209 -1.4046621893
H 0.9234793293 -1.6777813761 0.7507949183
H 0.5537828646 -2.0746720063 -0.9303420433
H 3.0186735549 -1.9033351173 -0.5616008568
H 2.4633114153 -0.6768678769 -1.7009890687
H 3.0274470539 -0.2408265841 1.2764175695
H 4.0222810584 0.3413504275 -0.0601794987
H 2.5293781107 2.1476971608 0.8364549050
H 2.1680991394 1.7846052608 -0.8522612846
H 0.6202112913 0.7459778472 1.5793849485
H 0.0671247539 1.9861816575 0.4435429378
24
CONF1
C -3.5779012162 0.3722551981 -0.2545599979
O -2.1863305609 0.4595803711 -0.6545543032
C -1.3142293856 -0.2503799235 0.0912123809
O -1.6635653413 -0.9504134717 1.0284926070
C 0.1075001456 -0.0263756479 -0.3429984166
C 0.9583017970 -1.2889126734 -0.1724095998
C 2.4072972372 -1.0192461788 -0.5795556808
C 3.0004771827 0.1390736320 0.2246256839
C 2.1465801513 1.4003129252 0.0849810122
C 0.6943544583 1.1385097259 0.4856365639
H -3.7019915922 0.7474185911 0.7643873996
H -3.9256823749 -0.6617929305 -0.3188147675
H -4.1214208801 0.9999427402 -0.9598273528
H 0.0994770420 0.2747388038 -1.3971417871
H 0.9248155480 -1.6001438464 0.8791365536
H 0.5351720558 -2.1054352982 -0.7687231065
H 3.0048755727 -1.9267254617 -0.4374127887
H 2.4444250961 -0.7756539224 -1.6502732426
H 3.0508356307 -0.1467582560 1.2843878110
H 4.0266630046 0.3412235805 -0.1029397735
H 2.5549050886 2.2085662992 0.7023884074
H 2.1744835529 1.7454510298 -0.9574506566
H 0.6445112494 0.8706841052 1.5495429758
H 0.0878038049 2.0396451889 0.3424448525
24
CONF3
C -3.2388470958 -0.0279335977 0.9800600568
O -1.7990975978 0.0024264938 0.8080008153
C -1.3519223154 -0.1261394699 -0.4553773509
O -2.1026448164 -0.2673936194 -1.4090766917
C 0.1490971550 -0.0712008125 -0.5402819422
C 0.8103662482 -1.2046264300 0.2647343970
C 2.3306483824 -1.1473893131 0.1073051362
C 2.8806791416 0.2148120461 0.5342319242
C 2.2063058461 1.3488774517 -0.2399076553
C 0.6858751981 1.2984059630 -0.0834855357
H -3.4042602464 0.0973789091 2.0495087839
H -3.6398104707 -0.9865922132 0.6423843181
H -3.7023731374 0.7905066291 0.4241941850
H 0.3912618009 -0.2062677523 -1.6007021876
H 0.5460229656 -1.0947347270 1.3236849338
H 0.4240618685 -2.1735419640 -0.0721603384
H 2.7913249577 -1.9472378177 0.6981105964
H 2.5928243911 -1.3323864762 -0.9433802770
H 2.6995222536 0.3554496052 1.6088537014
H 3.9658695315 0.2480015721 0.3844128676
H 2.5784683425 2.3203737134 0.1046580616
H 2.4631707868 1.2661863482 -1.3049228273
H 0.4192585341 1.4540859261 0.9690840890
H 0.2113431608 2.0964156150 -0.6661072187
24
CONF8
C -3.1207367634 -0.7758777412 0.1803964459
O -1.8850764843 -0.4948896977 -0.5254810492
C -1.1049743756 0.4630948221 0.0115769346
O -1.4103445153 1.0571884523 1.0327808534
C 0.1236152345 0.7399185188 -0.8310355141
C 0.7872318879 -0.5407742277 -1.3691145561
C 1.4590862328 -1.3315468909 -0.2458462118
C 2.4907980744 -0.4694946561 0.4849333339
C 1.8469008778 0.8042057871 1.0361070618
C 1.1434379232 1.5963587485 -0.0696007084
H -3.7452562786 0.1196668177 0.2205255899
H -2.9056849114 -1.1295528823 1.1913713725
H -3.6119653597 -1.5566095277 -0.3988721173
H -0.2636337613 1.3145560139 -1.6855212032
H 0.0606760387 -1.1571420474 -1.9046407208
H 1.5486373428 -0.2342369843 -2.0971419263
H 0.6967289362 -1.6731403398 0.4700586241
H 1.9332213531 -2.2299746380 -0.6568639120
H 2.9574591344 -1.0392087962 1.2966950890
H 3.2896401637 -0.1968124555 -0.2189600261
H 1.1200331400 0.5309841383 1.8120310679
H 2.6023381031 1.4367324777 1.5160448734
H 0.6577348851 2.4871011194 0.3405721824
H 1.8906150814 1.9407762608 -0.7950567135
24
CONF5
C -3.0592396510 0.7093260752 0.6697422594
O -1.8338437479 0.7951897969 -0.1023435544
C -1.1014304883 -0.3336949592 -0.1697643129
O -1.4415791803 -1.3667639299 0.3833974620
C 0.1222401116 -0.1765447906 -1.0509024593
C 1.1421637453 -1.2926519228 -0.7904129613
C 1.8391754761 -1.1197210715 0.5621747957
C 2.4864962260 0.2613110762 0.6837802013
C 1.4616464629 1.3708813053 0.4380383524
C 0.7911582079 1.2027021192 -0.9266424962
H -3.5006521905 1.7041747504 0.6204989843
H -2.8347803634 0.4429133047 1.7052366431
H -3.7326586699 -0.0292842765 0.2284263107
H -0.2727416910 -0.2831302390 -2.0725009605
H 0.6591046585 -2.2721913322 -0.8556962338
H 1.8912068623 -1.2470417578 -1.5903100863
H 1.1072263041 -1.2467217083 1.3711524821
H 2.5920818267 -1.9056378117 0.6905044333
H 2.9446280053 0.3786812271 1.6726872279
H 3.2935233676 0.3501832595 -0.0571225828
H 0.6968825722 1.3410138174 1.2279905294
H 1.9415191850 2.3542494810 0.4969335059
H 0.0699586306 2.0025836683 -1.1127443046
H 1.5544342581 1.2681549095 -1.7120225995
24
CONF6
C -3.4695856681 0.6011419002 0.2503474536
O -2.0453081292 0.7649907497 0.0277281653
C -1.3368026445 -0.3712726085 -0.0990107666
O -1.8516064464 -1.4759795857 -0.0178708592
C 0.1288395438 -0.1337758120 -0.3821999151
C 0.9779507388 -1.2467329370 0.2522118779
C 2.4576487223 -1.0715950831 -0.0887248942
C 2.9648768727 0.3095149483 0.3254809517
C 2.1227240420 1.4096468557 -0.3195774600
C 0.6387178859 1.2554703791 0.0221661568
H -3.6459129581 0.0424216603 1.1723834148
H -3.9260462676 0.0828052635 -0.5963240431
H -3.8655673520 1.6124504467 0.3364738579
H 0.2135943702 -0.2253325318 -1.4779983586
H 0.8443770000 -1.2088103583 1.3421687770
H 0.6226858873 -2.2244548752 -0.0856439841
H 3.0422597265 -1.8580585964 0.4019838829
H 2.5944819071 -1.1977460216 -1.1716746258
H 2.9070278890 0.4032832520 1.4189315374
H 4.0189422809 0.4262100115 0.0482697240
H 2.4717481916 2.3976850846 0.0012555345
H 2.2455396879 1.3653901673 -1.4107603808
H 0.4952330436 1.3862032280 1.1030829015
H 0.0585728488 2.0346326271 -0.4800782518
