14
 xtb: 6.7.1 (edcfbbe)
C            1.56581119602077       -0.01971056266414        0.57100956806601
C            0.67986801643267        0.35250382860871       -0.61581204940864
C           -0.67988411873204       -0.35249937315588       -0.61583817869499
C           -1.56582354343015        0.01970127613170        0.57099011355322
H            2.54607277477668        0.46262274786030        0.49750684671279
H            1.12032623486657        0.28676255137943        1.52289643073310
H            1.72860993139533       -1.10320033040174        0.61171272039093
H            0.52022113810551        1.43920939530043       -0.62730033557085
H            1.20646129722091        0.10641343228802       -1.54638817276165
H           -1.20646796683008       -0.10639201103272       -1.54641599898561
H           -0.52023275189164       -1.43920379771437       -0.62734404620204
H           -2.54607870896913       -0.46264237719698        0.49747284384803
H           -1.72863676671670        1.10318955935630        0.61170672687997
H           -1.12034491764863       -0.28677825521099        1.52287907124531
