12
 xtb: 6.7.1 (edcfbbe)
C           -1.58601427343279       -0.11724086092517        0.51535443385296
C           -0.65166315430200        0.50603891237486       -0.51873650717364
C            0.67097508743738       -0.22223538444427       -0.65160585700169
O            1.38035538409249       -0.13977758051397        0.60375595331068
H           -1.15681421270009       -0.07407397119952        1.52075631668130
H           -2.54635830254426        0.40701527591096        0.54150218033976
H           -1.78316005728988       -1.16884365945269        0.27790586980998
H           -0.45807957469893        1.55757804074668       -0.27136514279834
H           -1.12908343819992        0.49649547146429       -1.50595944115748
H            0.49592838069618       -1.27650902023142       -0.91210583994078
H            1.27408366127131        0.23221422650183       -1.44992890191784
H            2.20114042525166       -0.63742116059526        0.50326940184901
