24
 xtb: 6.7.1 (edcfbbe)
C           -3.84739480970481       -0.68383402070986        0.01279815412653
N           -2.69543138232221        0.21912714961304       -0.00780121882948
C           -2.89944389040287        1.66841327526392       -0.01227580870600
C           -1.46338598466805       -0.35970055008794        0.00072644268771
O           -1.32576618334663       -1.59764663150518        0.01640701359026
N           -0.39114638858763        0.51339221304131       -0.01015640660802
C            0.97900028315749        0.21656859630440       -0.00463829771389
C            1.51925576199641       -1.07713320111812        0.00783944175168
C            2.90238273928093       -1.24574953419381        0.01212019567934
C            3.76755208410918       -0.15659355473104        0.00397948162647
C            3.22805188742224        1.12911971448945       -0.00883580917513
C            1.85361306673922        1.31661142450249       -0.01303614559279
H           -3.84665328792645       -1.34803917755687       -0.85791801817350
H           -4.75798622614098       -0.08569883289227       -0.00707703630568
H           -3.85425746834053       -1.30154707450123        0.91750723081532
H           -2.47513176513021        2.14272895988505        0.88143506555102
H           -3.96992011376230        1.87081541492212       -0.01633596241176
H           -2.47037857636000        2.13689670756832       -0.90664061107724
H           -0.59796299988149        1.50124782730050       -0.02090502603062
H            0.87051082045387       -1.93960082299742        0.01406101147248
H            3.30184950244505       -2.25548958381867        0.02194117167315
H            4.84229593050204       -0.30429512082615        0.00739754862865
H            3.88065689637842        1.99671173865937       -0.01549930263717
H            1.44425294523493        2.32325180078603       -0.02291147692127
