 xtb: 6.7.1 (edcfbbe)
          04042520103D

 15 15  0     0  0            999 V2000
   -0.4109   -1.0473    0.0000 C   0  0  0  0  0  0  0  0  0  0  0  0
    0.9536   -1.1989    0.0000 C   0  0  0  0  0  0  0  0  0  0  0  0
    1.7840   -0.0721   -0.0000 C   0  0  0  0  0  0  0  0  0  0  0  0
    1.2158    1.2046   -0.0000 C   0  0  0  0  0  0  0  0  0  0  0  0
   -0.1527    1.3517   -0.0000 C   0  0  0  0  0  0  0  0  0  0  0  0
   -0.9881    0.2301   -0.0000 C   0  0  0  0  0  0  0  0  0  0  0  0
   -2.4281    0.3863    0.0000 C   0  0  0  0  0  0  0  0  0  0  0  0
   -3.2453   -0.5176    0.0000 O   0  0  0  0  0  0  0  0  0  0  0  0
    3.1115   -0.2711   -0.0000 O   0  0  0  0  0  0  0  0  0  0  0  0
   -1.0664   -1.9049    0.0000 H   0  0  0  0  0  0  0  0  0  0  0  0
    1.4117   -2.1747    0.0000 H   0  0  0  0  0  0  0  0  0  0  0  0
    1.8525    2.0765   -0.0001 H   0  0  0  0  0  0  0  0  0  0  0  0
   -0.5904    2.3384   -0.0001 H   0  0  0  0  0  0  0  0  0  0  0  0
   -2.7751    1.4371   -0.0000 H   0  0  0  0  0  0  0  0  0  0  0  0
    3.6013    0.5676   -0.0000 H   0  0  0  0  0  0  0  0  0  0  0  0
  1  2  2  0  0  0  0
  2  3  4  0  0  0  0
  3  4  4  0  0  0  0
  4  5  4  0  0  0  0
  1  6  4  0  0  0  0
  5  6  4  0  0  0  0
  6  7  1  0  0  0  0
  7  8  2  0  0  0  0
  3  9  1  0  0  0  0
  1 10  1  0  0  0  0
  2 11  1  0  0  0  0
  4 12  1  0  0  0  0
  5 13  1  0  0  0  0
  7 14  1  0  0  0  0
  9 15  1  0  0  0  0
M  END
