19
 xtb: 6.7.1 (edcfbbe)
C           -3.83118981702513       -0.70896121562283        0.00022474788748
O           -2.38745673108115       -0.82560646572026       -0.00097634405167
C           -1.70628657438771        0.33901329494995        0.00046136663104
O           -2.26331654786825        1.42969659225096        0.00286406160483
C           -0.24651103369554        0.14760652905713        0.00000936921061
C            0.57624224499648        1.28145199949025        0.00119173906482
C            1.95455555058044        1.15705620242205        0.00102194298038
C            2.52927798853912       -0.11770515659747       -0.00013038514347
C            1.72297282837096       -1.25939996400703       -0.00133500593398
C            0.34599184277391       -1.12405467778332       -0.00126234746235
O            3.88082938503088       -0.30669794369310       -0.00007323178409
H           -4.20208361226905       -1.73318959947346       -0.00879070842483
H           -4.16875465666870       -0.17335482516319       -0.89037231609892
H           -4.16811345132136       -0.18939021938012        0.90055985881519
H            0.12626797344417        2.26812841092835        0.00207317807108
H            2.59106848078919        2.03695552420146        0.00183065982620
H            2.18710836284925       -2.23981790871413       -0.00225251300117
H           -0.27274123213004       -2.01333781801839       -0.00216412430438
H            4.32980692218471        0.55149064229799        0.00101685436833
