13
 xtb: 6.7.1 (edcfbbe)
C           -1.94540942213843       -0.10243560516274       -0.01381105926792
C           -0.56006657261008        0.53788014400441       -0.02474894941564
C            0.55048600961893       -0.50205867546756       -0.02447994003880
N            1.88053846659019        0.14008871551806       -0.01233215057771
H           -2.08281464292404       -0.72904175174217        0.87439197203919
H           -2.73398747897688        0.65622379166260       -0.01262077917595
H           -2.09194754168028       -0.73629769751300       -0.89561061917429
H           -0.44457037987112        1.18432789045247        0.85594604204338
H           -0.45136371485190        1.18158184046487       -0.90657058330968
H            0.39891666319006       -1.18171364614789        0.83074270681513
H            0.47255361962085       -1.11470561930390       -0.93101225623999
H            2.58723162014552       -0.58841534308368        0.02851398802120
H            1.97211387989684        0.64393980999412        0.86624432396934
