 xtb: 6.7.1 (edcfbbe)
          04042522043D

 17 17  0     0  0            999 V2000
    2.8600    0.7152   -0.1765 C   0  0  0  0  0  0  0  0  0  0  0  0
    1.9740   -0.4860    0.1378 C   0  0  0  0  0  0  0  0  0  0  0  0
    0.4979   -0.2118    0.0694 C   0  0  0  0  0  0  0  0  0  0  0  0
   -0.0599    1.0499    0.2409 C   0  0  0  0  0  0  0  0  0  0  0  0
   -1.4364    1.1998    0.1787 C   0  0  0  0  0  0  0  0  0  0  0  0
   -2.2157    0.0785   -0.0510 C   0  0  0  0  0  0  0  0  0  0  0  0
   -1.7043   -1.1328   -0.2165 N   0  0  0  0  0  0  0  0  0  0  0  0
   -0.3902   -1.2621   -0.1580 C   0  0  0  0  0  0  0  0  0  0  0  0
    2.5863    1.1518   -1.1343 H   0  0  0  0  0  0  0  0  0  0  0  0
    3.8990    0.3998   -0.2264 H   0  0  0  0  0  0  0  0  0  0  0  0
    2.7778    1.4780    0.5933 H   0  0  0  0  0  0  0  0  0  0  0  0
    2.2062   -0.8502    1.1433 H   0  0  0  0  0  0  0  0  0  0  0  0
    2.2032   -1.2973   -0.5569 H   0  0  0  0  0  0  0  0  0  0  0  0
    0.5655    1.9105    0.4199 H   0  0  0  0  0  0  0  0  0  0  0  0
   -1.8939    2.1681    0.3059 H   0  0  0  0  0  0  0  0  0  0  0  0
   -3.2939    0.1410   -0.1087 H   0  0  0  0  0  0  0  0  0  0  0  0
   -0.0208   -2.2701   -0.3019 H   0  0  0  0  0  0  0  0  0  0  0  0
  1  2  1  0  0  0  0
  2  3  1  0  0  0  0
  3  4  4  0  0  0  0
  4  5  4  0  0  0  0
  5  6  4  0  0  0  0
  6  7  4  0  0  0  0
  3  8  4  0  0  0  0
  7  8  4  0  0  0  0
  1  9  1  0  0  0  0
  1 10  1  0  0  0  0
  1 11  1  0  0  0  0
  2 12  1  0  0  0  0
  2 13  1  0  0  0  0
  4 14  1  0  0  0  0
  5 15  1  0  0  0  0
  6 16  1  0  0  0  0
  8 17  1  0  0  0  0
M  END
