 xtb: 6.7.1 (edcfbbe)
          04062508313D

 24 24  0     0  0            999 V2000
   -3.2322    0.2529    0.8316 C   0  0  0  0  0  0  0  0  0  0  0  0
   -1.8184    0.3296    0.6377 O   0  0  0  0  0  0  0  0  0  0  0  0
   -1.3144   -0.2702   -0.4334 C   0  0  0  0  0  0  0  0  0  0  0  0
   -2.0009   -0.8684   -1.2381 O   0  0  0  0  0  0  0  0  0  0  0  0
    0.1881   -0.1615   -0.5095 C   0  0  0  0  0  0  0  0  0  0  0  0
    0.8043   -1.0013    0.6179 C   0  0  0  0  0  0  0  0  0  0  0  0
    2.3210   -1.1092    0.4229 C   0  0  0  0  0  0  0  0  0  0  0  0
    2.8996    0.1616   -0.2117 C   0  0  0  0  0  0  0  0  0  0  0  0
    2.0774    1.3778    0.1990 C   0  0  0  0  0  0  0  0  0  0  0  0
    0.6671    1.2970   -0.3972 C   0  0  0  0  0  0  0  0  0  0  0  0
   -3.5446   -0.7904    0.8904 H   0  0  0  0  0  0  0  0  0  0  0  0
   -3.7491    0.7302   -0.0018 H   0  0  0  0  0  0  0  0  0  0  0  0
   -3.4285    0.7737    1.7634 H   0  0  0  0  0  0  0  0  0  0  0  0
    0.4832   -0.5923   -1.4703 H   0  0  0  0  0  0  0  0  0  0  0  0
    0.5690   -0.5218    1.5686 H   0  0  0  0  0  0  0  0  0  0  0  0
    0.3581   -1.9976    0.6268 H   0  0  0  0  0  0  0  0  0  0  0  0
    2.7852   -1.2847    1.3940 H   0  0  0  0  0  0  0  0  0  0  0  0
    2.5504   -1.9662   -0.2118 H   0  0  0  0  0  0  0  0  0  0  0  0
    3.9381    0.2873    0.0956 H   0  0  0  0  0  0  0  0  0  0  0  0
    2.8863    0.0781   -1.2996 H   0  0  0  0  0  0  0  0  0  0  0  0
    2.0239    1.4177    1.2875 H   0  0  0  0  0  0  0  0  0  0  0  0
    2.5612    2.2935   -0.1419 H   0  0  0  0  0  0  0  0  0  0  0  0
   -0.0251    1.8581    0.2312 H   0  0  0  0  0  0  0  0  0  0  0  0
    0.6562    1.7454   -1.3919 H   0  0  0  0  0  0  0  0  0  0  0  0
  1  2  1  0  0  0  0
  2  3  1  0  0  0  0
  3  4  2  0  0  0  0
  3  5  1  0  0  0  0
  5  6  1  0  0  0  0
  6  7  1  0  0  0  0
  7  8  1  0  0  0  0
  8  9  1  0  0  0  0
  5 10  1  0  0  0  0
  9 10  1  0  0  0  0
  1 11  1  0  0  0  0
  1 12  1  0  0  0  0
  1 13  1  0  0  0  0
  5 14  1  0  0  0  0
  6 15  1  0  0  0  0
  6 16  1  0  0  0  0
  7 17  1  0  0  0  0
  7 18  1  0  0  0  0
  8 19  1  0  0  0  0
  8 20  1  0  0  0  0
  9 21  1  0  0  0  0
  9 22  1  0  0  0  0
 10 23  1  0  0  0  0
 10 24  1  0  0  0  0
M  END
