11
 xtb: 6.7.1 (edcfbbe)
C            2.02800227641376        0.04230093770925       -0.00037614185626
C            0.74120511217900       -0.76623039449304        0.00047926484565
C           -0.49653635573208        0.08452499412287       -0.00000788136559
O           -0.51558209586127        1.30078774385743       -0.00029806379812
O           -1.68197598311873       -0.57901462290052       -0.00022148690171
H            2.09190084965029        0.68074590547348        0.88485109594659
H            2.88954236365953       -0.63011392663512        0.00035973748602
H            2.09192508252281        0.67883913630074       -0.88697671738250
H            0.68296540225876       -1.42688543893823       -0.87432178424573
H            0.68316505573157       -1.42524512499411        0.87654145022127
H           -1.53296054368802       -1.53799787846817       -0.00001779694212
