 xtb: 6.7.1 (edcfbbe)
          04062520053D

 27 27  0     0  0            999 V2000
   -2.5748    0.9071    1.4486 C   0  0  0  0  0  0  0  0  0  0  0  0
   -1.5771    0.4842    0.4183 C   0  0  0  0  0  0  0  0  0  0  0  0
   -0.8240    1.3134   -0.2932 C   0  0  0  0  0  0  0  0  0  0  0  0
    0.1583    0.7657   -1.2761 C   0  0  0  0  0  0  0  0  0  0  0  0
    0.9770   -0.4028   -0.6831 C   0  0  0  0  0  0  0  0  0  0  0  0
    1.3527   -0.9902   -1.5253 H   0  0  0  0  0  0  0  0  0  0  0  0
    0.1161   -1.3274    0.2058 C   0  0  0  0  0  0  0  0  0  0  0  0
   -1.3821   -0.9951    0.1801 C   0  0  0  0  0  0  0  0  0  0  0  0
   -1.8792   -1.5745    0.9757 H   0  0  0  0  0  0  0  0  0  0  0  0
   -1.8996   -1.4176   -1.0772 O   0  0  0  0  0  0  0  0  0  0  0  0
    2.1724    0.1029    0.0899 C   0  0  0  0  0  0  0  0  0  0  0  0
    3.3903   -0.3477   -0.1698 C   0  0  0  0  0  0  0  0  0  0  0  0
    1.9245    1.1304    1.1519 C   0  0  0  0  0  0  0  0  0  0  0  0
   -3.5665    0.5263    1.2078 H   0  0  0  0  0  0  0  0  0  0  0  0
   -2.6209    1.9906    1.5137 H   0  0  0  0  0  0  0  0  0  0  0  0
   -2.2963    0.5072    2.4236 H   0  0  0  0  0  0  0  0  0  0  0  0
   -0.9072    2.3849   -0.1842 H   0  0  0  0  0  0  0  0  0  0  0  0
   -0.3891    0.3787   -2.1393 H   0  0  0  0  0  0  0  0  0  0  0  0
    0.8380    1.5408   -1.6313 H   0  0  0  0  0  0  0  0  0  0  0  0
    0.2322   -2.3615   -0.1193 H   0  0  0  0  0  0  0  0  0  0  0  0
    0.4499   -1.2647    1.2421 H   0  0  0  0  0  0  0  0  0  0  0  0
   -2.8331   -1.1765   -1.1312 H   0  0  0  0  0  0  0  0  0  0  0  0
    4.2530   -0.0076    0.3785 H   0  0  0  0  0  0  0  0  0  0  0  0
    3.5772   -1.0763   -0.9407 H   0  0  0  0  0  0  0  0  0  0  0  0
    2.8127    1.2714    1.7620 H   0  0  0  0  0  0  0  0  0  0  0  0
    1.6648    2.0843    0.6963 H   0  0  0  0  0  0  0  0  0  0  0  0
    1.0953    0.8379    1.7918 H   0  0  0  0  0  0  0  0  0  0  0  0
  1  2  1  0  0  0  0
  2  3  2  0  0  0  0
  3  4  1  0  0  0  0
  4  5  1  0  0  0  0
  5  6  1  0  0  0  0
  5  7  1  0  0  0  0
  2  8  1  0  0  0  0
  7  8  1  0  0  0  0
  8  9  1  0  0  0  0
  8 10  1  0  0  0  0
  5 11  1  0  0  0  0
 11 12  2  0  0  0  0
 11 13  1  0  0  0  0
  1 14  1  0  0  0  0
  1 15  1  0  0  0  0
  1 16  1  0  0  0  0
  3 17  1  0  0  0  0
  4 18  1  0  0  0  0
  4 19  1  0  0  0  0
  7 20  1  0  0  0  0
  7 21  1  0  0  0  0
 10 22  1  0  0  0  0
 12 23  1  0  0  0  0
 12 24  1  0  0  0  0
 13 25  1  0  0  0  0
 13 26  1  0  0  0  0
 13 27  1  0  0  0  0
M  END
