16
 xtb: 6.7.1 (edcfbbe)
C           -1.32929434869720        0.77578273487520       -0.42695797999647
C           -1.54353241460732       -0.66438619076533        0.05115281393266
C           -0.12203898645053       -1.23865997314070        0.02930767728735
C            0.79947853639356       -0.07059915815596        0.45203659641769
C           -0.08014875466212        1.20112740318311        0.35538102470768
O            1.99737856770854        0.00099492278345       -0.35168594901207
H           -2.18946906527692        1.42762005000873       -0.24725050582414
H           -1.12415118753882        0.77798115834139       -1.50513650619547
H           -1.93548979591289       -0.65701256432013        1.07595635961339
H           -2.24024517425972       -1.23356842658948       -0.57159133632520
H            0.00668702286795       -2.12478158592633        0.65706072180053
H            0.13781317081347       -1.51976177418981       -0.99936966375466
H            1.17270341452293       -0.20598165906208        1.47086518118444
H           -0.37197640579951        1.51543606551692        1.36385505569211
H            0.47253047272913        2.02799321822587       -0.10084985230941
H            1.71765649088919        0.09477597921033       -1.27254764902422
