 xtb: 6.7.1 (edcfbbe)
          04042520253D

 15 14  0     0  0            999 V2000
    1.8663    0.9289   -0.2678 C   0  0  0  0  0  0  0  0  0  0  0  0
    0.9644   -0.0759    0.4381 C   0  0  0  0  0  0  0  0  0  0  0  0
   -0.3785   -0.2886   -0.2746 C   0  0  0  0  0  0  0  0  0  0  0  0
   -0.1920   -0.5464   -1.3239 H   0  0  0  0  0  0  0  0  0  0  0  0
   -1.2759    0.9460   -0.2054 C   0  0  0  0  0  0  0  0  0  0  0  0
   -1.0441   -1.4301    0.2454 O   0  0  0  0  0  0  0  0  0  0  0  0
    1.4296    1.9235   -0.2524 H   0  0  0  0  0  0  0  0  0  0  0  0
    2.0247    0.6360   -1.3030 H   0  0  0  0  0  0  0  0  0  0  0  0
    2.8321    0.9734    0.2287 H   0  0  0  0  0  0  0  0  0  0  0  0
    0.7766    0.2566    1.4621 H   0  0  0  0  0  0  0  0  0  0  0  0
    1.4690   -1.0438    0.4867 H   0  0  0  0  0  0  0  0  0  0  0  0
   -1.4057    1.2635    0.8273 H   0  0  0  0  0  0  0  0  0  0  0  0
   -0.8405    1.7619   -0.7728 H   0  0  0  0  0  0  0  0  0  0  0  0
   -2.2507    0.7116   -0.6265 H   0  0  0  0  0  0  0  0  0  0  0  0
   -1.2753   -1.2591    1.1693 H   0  0  0  0  0  0  0  0  0  0  0  0
  1  2  1  0  0  0  0
  2  3  1  0  0  0  0
  3  4  1  0  0  0  0
  3  5  1  0  0  0  0
  3  6  1  0  0  0  0
  1  7  1  0  0  0  0
  1  8  1  0  0  0  0
  1  9  1  0  0  0  0
  2 10  1  0  0  0  0
  2 11  1  0  0  0  0
  5 12  1  0  0  0  0
  5 13  1  0  0  0  0
  5 14  1  0  0  0  0
  6 15  1  0  0  0  0
M  END
