 xtb: 6.7.1 (edcfbbe)
          04042516103D

 14 13  0     0  0            999 V2000
   -1.8936   -1.2364   -0.0395 C   0  0  0  0  0  0  0  0  0  0  0  0
   -1.5166    0.2365    0.0374 C   0  0  0  0  0  0  0  0  0  0  0  0
   -0.0331    0.4970    0.0548 C   0  0  0  0  0  0  0  0  0  0  0  0
    0.4574    1.6062    0.1485 O   0  0  0  0  0  0  0  0  0  0  0  0
    0.6954   -0.6055   -0.0449 O   0  0  0  0  0  0  0  0  0  0  0  0
    2.1166   -0.4613   -0.0405 C   0  0  0  0  0  0  0  0  0  0  0  0
   -2.9751   -1.3361   -0.0454 H   0  0  0  0  0  0  0  0  0  0  0  0
   -1.4949   -1.6866   -0.9440 H   0  0  0  0  0  0  0  0  0  0  0  0
   -1.4964   -1.7779    0.8143 H   0  0  0  0  0  0  0  0  0  0  0  0
   -1.9305    0.6996    0.9358 H   0  0  0  0  0  0  0  0  0  0  0  0
   -1.9230    0.7861   -0.8148 H   0  0  0  0  0  0  0  0  0  0  0  0
    2.4320    0.1585   -0.8807 H   0  0  0  0  0  0  0  0  0  0  0  0
    2.5127   -1.4681   -0.1268 H   0  0  0  0  0  0  0  0  0  0  0  0
    2.4415    0.0107    0.8876 H   0  0  0  0  0  0  0  0  0  0  0  0
  1  2  1  0  0  0  0
  2  3  1  0  0  0  0
  3  4  2  0  0  0  0
  3  5  1  0  0  0  0
  5  6  1  0  0  0  0
  1  7  1  0  0  0  0
  1  8  1  0  0  0  0
  1  9  1  0  0  0  0
  2 10  1  0  0  0  0
  2 11  1  0  0  0  0
  6 12  1  0  0  0  0
  6 13  1  0  0  0  0
  6 14  1  0  0  0  0
M  END
