18
 xtb: 6.7.1 (edcfbbe)
C           -0.70805672444528       -2.96334334530340        0.22421295731238
C            0.67739676799074       -2.97578869686833        0.31069434858648
C            1.38687496759097       -1.78375634550792        0.24687481414242
C            0.73014934846779       -0.56066967327842        0.09612432679813
C           -0.67316846488757       -0.54920076376873        0.01013159913648
C           -1.37369076978724       -1.75552941101372        0.07521873774375
C           -1.56664002063153        0.65773631917115       -0.15305263296141
F           -2.30775775448261        0.55285448533881       -1.28946607452567
F           -2.45640624151460        0.73391421591970        0.87371162455846
F           -0.94537664792251        1.84694202558776       -0.20960021936402
C            1.59036036819356        0.68074388415269        0.03434684685118
F            2.90658338071757        0.38577663627492        0.13530490525049
F            1.44746877492586        1.35405616857510       -1.13464443085729
F            1.32447485291964        1.54999887895817        1.04123129988281
H           -1.27368138026849       -3.88717294508167        0.27188522496114
H            1.21387798150626       -3.91087198368317        0.42748289723914
H            2.46661305698970       -1.80755730187516        0.31510857469452
H           -2.45625567109236       -1.74591941770759        0.00730659215930
