18
 xtb: 6.7.1 (edcfbbe)
C           -2.18402450701579       -0.07154266053094       -0.21540984129708
C           -0.79447913215136        0.01294338282902        0.40242763175001
C            0.09738265142041       -1.22981222795088        0.11126328197035
C            1.48060391166740       -0.68272482427400       -0.31459497545973
C            1.48126451093827        0.77730315786282        0.15846353493246
C            0.03656463873241        1.20756929459020       -0.09830792000560
H           -2.74517082446013       -0.92712799280322        0.17667707111381
H           -2.76784581925196        0.83298582274145       -0.00975519580884
H           -2.11342007497905       -0.18671117941907       -1.30366223465756
H           -0.90222760828636        0.11496402264598        1.49012096244954
H            0.17907047750369       -1.85983237910305        1.00272003196608
H           -0.34432388041081       -1.84857275817918       -0.67740693805247
H            2.31240427264636       -1.26599961416193        0.09183979522624
H            1.57035980660510       -0.70290318612701       -1.40688288929331
H            1.69682804908079        0.82697976690303        1.23370018085566
H            2.22113083252447        1.39494458407518       -0.36086193712543
H           -0.23908575288037        2.14581704776334        0.39459663887206
H           -0.12039218612155        1.33703891379493       -1.17843996180622
