 xtb: 6.7.1 (edcfbbe)
          04062511443D

 31 31  0     0  0            999 V2000
    3.7310    0.3053    0.1534 C   0  0  0  0  0  0  0  0  0  0  0  0
    2.2915    0.1762   -0.3371 C   0  0  0  0  0  0  0  0  0  0  0  0
    2.3046   -0.0691   -1.4056 H   0  0  0  0  0  0  0  0  0  0  0  0
    1.5201    1.4789   -0.1471 C   0  0  0  0  0  0  0  0  0  0  0  0
    0.0784    1.3380   -0.6263 C   0  0  0  0  0  0  0  0  0  0  0  0
   -0.6692    0.2314    0.1257 C   0  0  0  0  0  0  0  0  0  0  0  0
   -0.6602    0.4693    1.1945 H   0  0  0  0  0  0  0  0  0  0  0  0
    0.1100   -1.0827   -0.0682 C   0  0  0  0  0  0  0  0  0  0  0  0
    0.1080   -1.3212   -1.1467 H   0  0  0  0  0  0  0  0  0  0  0  0
    1.5597   -0.9376    0.4061 C   0  0  0  0  0  0  0  0  0  0  0  0
   -0.5318   -2.1324    0.6358 O   0  0  0  0  0  0  0  0  0  0  0  0
   -2.1439    0.0745   -0.3198 C   0  0  0  0  0  0  0  0  0  0  0  0
   -2.9883   -0.5010    0.8187 C   0  0  0  0  0  0  0  0  0  0  0  0
   -2.7933    1.3784   -0.7866 C   0  0  0  0  0  0  0  0  0  0  0  0
    4.2458    1.0967   -0.3858 H   0  0  0  0  0  0  0  0  0  0  0  0
    3.7492    0.5440    1.2144 H   0  0  0  0  0  0  0  0  0  0  0  0
    4.2732   -0.6248    0.0006 H   0  0  0  0  0  0  0  0  0  0  0  0
    1.5261    1.7480    0.9115 H   0  0  0  0  0  0  0  0  0  0  0  0
    2.0091    2.2834   -0.7001 H   0  0  0  0  0  0  0  0  0  0  0  0
   -0.4297    2.2892   -0.4768 H   0  0  0  0  0  0  0  0  0  0  0  0
    0.0735    1.1116   -1.6953 H   0  0  0  0  0  0  0  0  0  0  0  0
    1.5521   -0.7238    1.4776 H   0  0  0  0  0  0  0  0  0  0  0  0
    2.0816   -1.8866    0.2567 H   0  0  0  0  0  0  0  0  0  0  0  0
   -0.0141   -2.9419    0.5310 H   0  0  0  0  0  0  0  0  0  0  0  0
   -2.1674   -0.6322   -1.1573 H   0  0  0  0  0  0  0  0  0  0  0  0
   -2.5495   -1.4198    1.1932 H   0  0  0  0  0  0  0  0  0  0  0  0
   -3.9972   -0.7126    0.4714 H   0  0  0  0  0  0  0  0  0  0  0  0
   -3.0492    0.2147    1.6362 H   0  0  0  0  0  0  0  0  0  0  0  0
   -3.8431    1.1948   -1.0049 H   0  0  0  0  0  0  0  0  0  0  0  0
   -2.3265    1.7627   -1.6886 H   0  0  0  0  0  0  0  0  0  0  0  0
   -2.7386    2.1351   -0.0074 H   0  0  0  0  0  0  0  0  0  0  0  0
  1  2  1  0  0  0  0
  2  3  1  0  0  0  0
  2  4  1  0  0  0  0
  4  5  1  0  0  0  0
  5  6  1  0  0  0  0
  6  7  1  0  0  0  0
  6  8  1  0  0  0  0
  8  9  1  0  0  0  0
  2 10  1  0  0  0  0
  8 10  1  0  0  0  0
  8 11  1  0  0  0  0
  6 12  1  0  0  0  0
 12 13  1  0  0  0  0
 12 14  1  0  0  0  0
  1 15  1  0  0  0  0
  1 16  1  0  0  0  0
  1 17  1  0  0  0  0
  4 18  1  0  0  0  0
  4 19  1  0  0  0  0
  5 20  1  0  0  0  0
  5 21  1  0  0  0  0
 10 22  1  0  0  0  0
 10 23  1  0  0  0  0
 11 24  1  0  0  0  0
 12 25  1  0  0  0  0
 13 26  1  0  0  0  0
 13 27  1  0  0  0  0
 13 28  1  0  0  0  0
 14 29  1  0  0  0  0
 14 30  1  0  0  0  0
 14 31  1  0  0  0  0
M  END
