 xtb: 6.7.1 (edcfbbe)
          04052516073D

 27 27  0     0  0            999 V2000
   -3.2510    0.3574   -0.0029 C   0  0  0  0  0  0  0  0  0  0  0  0
   -1.7732    0.5994    0.3265 C   0  0  0  0  0  0  0  0  0  0  0  0
   -1.7181    1.0067    1.3426 H   0  0  0  0  0  0  0  0  0  0  0  0
   -1.1181    1.5689   -0.6555 C   0  0  0  0  0  0  0  0  0  0  0  0
    0.3961    1.5313   -0.4803 C   0  0  0  0  0  0  0  0  0  0  0  0
    0.9728    0.1597   -0.8818 C   0  0  0  0  0  0  0  0  0  0  0  0
    1.2838    0.2085   -1.9294 H   0  0  0  0  0  0  0  0  0  0  0  0
   -0.0966   -0.9508   -0.7792 C   0  0  0  0  0  0  0  0  0  0  0  0
   -1.0588   -0.7341    0.3494 C   0  0  0  0  0  0  0  0  0  0  0  0
   -1.2858   -1.5740    1.2007 O   0  0  0  0  0  0  0  0  0  0  0  0
    2.1960   -0.1762   -0.0603 C   0  0  0  0  0  0  0  0  0  0  0  0
    3.4047   -0.1415   -0.6003 C   0  0  0  0  0  0  0  0  0  0  0  0
    1.9852   -0.5387    1.3782 C   0  0  0  0  0  0  0  0  0  0  0  0
   -3.3542   -0.0591   -1.0025 H   0  0  0  0  0  0  0  0  0  0  0  0
   -3.6830   -0.3415    0.7095 H   0  0  0  0  0  0  0  0  0  0  0  0
   -3.7992    1.2942    0.0434 H   0  0  0  0  0  0  0  0  0  0  0  0
   -1.3809    1.3038   -1.6806 H   0  0  0  0  0  0  0  0  0  0  0  0
   -1.4906    2.5769   -0.4685 H   0  0  0  0  0  0  0  0  0  0  0  0
    0.8680    2.3086   -1.0813 H   0  0  0  0  0  0  0  0  0  0  0  0
    0.6282    1.7425    0.5650 H   0  0  0  0  0  0  0  0  0  0  0  0
   -0.6943   -0.9433   -1.6931 H   0  0  0  0  0  0  0  0  0  0  0  0
    0.3758   -1.9299   -0.6900 H   0  0  0  0  0  0  0  0  0  0  0  0
    4.2895   -0.3630   -0.0282 H   0  0  0  0  0  0  0  0  0  0  0  0
    3.5610    0.1127   -1.6349 H   0  0  0  0  0  0  0  0  0  0  0  0
    1.4661    0.2565    1.9112 H   0  0  0  0  0  0  0  0  0  0  0  0
    1.3748   -1.4362    1.4667 H   0  0  0  0  0  0  0  0  0  0  0  0
    2.9370   -0.7187    1.8701 H   0  0  0  0  0  0  0  0  0  0  0  0
  1  2  1  0  0  0  0
  2  3  1  0  0  0  0
  2  4  1  0  0  0  0
  4  5  1  0  0  0  0
  5  6  1  0  0  0  0
  6  7  1  0  0  0  0
  6  8  1  0  0  0  0
  2  9  1  0  0  0  0
  8  9  1  0  0  0  0
  9 10  2  0  0  0  0
  6 11  1  0  0  0  0
 11 12  2  0  0  0  0
 11 13  1  0  0  0  0
  1 14  1  0  0  0  0
  1 15  1  0  0  0  0
  1 16  1  0  0  0  0
  4 17  1  0  0  0  0
  4 18  1  0  0  0  0
  5 19  1  0  0  0  0
  5 20  1  0  0  0  0
  8 21  1  0  0  0  0
  8 22  1  0  0  0  0
 12 23  1  0  0  0  0
 12 24  1  0  0  0  0
 13 25  1  0  0  0  0
 13 26  1  0  0  0  0
 13 27  1  0  0  0  0
M  END
