 xtb: 6.7.1 (edcfbbe)
          04062518003D

 24 24  0     0  0            999 V2000
   -2.5505   -0.8847    0.3458 C   0  0  0  0  0  0  0  0  0  0  0  0
   -1.1185   -0.4190    0.6527 C   0  0  0  0  0  0  0  0  0  0  0  0
   -0.9845   -0.3303    1.7425 H   0  0  0  0  0  0  0  0  0  0  0  0
   -0.8283    0.9429   -0.0096 C   0  0  0  0  0  0  0  0  0  0  0  0
   -1.0533    0.8537   -1.0791 H   0  0  0  0  0  0  0  0  0  0  0  0
    0.6513    1.2916    0.1894 C   0  0  0  0  0  0  0  0  0  0  0  0
    0.8505    1.4328    1.2607 H   0  0  0  0  0  0  0  0  0  0  0  0
    1.5543    0.1473   -0.3047 C   0  0  0  0  0  0  0  0  0  0  0  0
    1.4651    0.0365   -1.3965 H   0  0  0  0  0  0  0  0  0  0  0  0
    1.1215   -1.1808    0.3315 C   0  0  0  0  0  0  0  0  0  0  0  0
    1.3455   -1.1300    1.4172 H   0  0  0  0  0  0  0  0  0  0  0  0
   -0.2558   -1.4214    0.1458 O   0  0  0  0  0  0  0  0  0  0  0  0
    1.8067   -2.2054   -0.2813 O   0  0  0  0  0  0  0  0  0  0  0  0
    2.8890    0.3819    0.0593 O   0  0  0  0  0  0  0  0  0  0  0  0
    1.0183    2.5091   -0.4107 O   0  0  0  0  0  0  0  0  0  0  0  0
   -1.6793    1.9504    0.4664 O   0  0  0  0  0  0  0  0  0  0  0  0
   -2.7338   -1.1484   -1.0195 O   0  0  0  0  0  0  0  0  0  0  0  0
   -3.2471   -0.0853    0.6034 H   0  0  0  0  0  0  0  0  0  0  0  0
   -2.7710   -1.7760    0.9453 H   0  0  0  0  0  0  0  0  0  0  0  0
    1.5082   -3.0601    0.0688 H   0  0  0  0  0  0  0  0  0  0  0  0
    3.1181    1.2900   -0.1986 H   0  0  0  0  0  0  0  0  0  0  0  0
    0.6473    2.5658   -1.3031 H   0  0  0  0  0  0  0  0  0  0  0  0
   -1.4403    2.1899    1.3736 H   0  0  0  0  0  0  0  0  0  0  0  0
   -2.0822   -1.8135   -1.2874 H   0  0  0  0  0  0  0  0  0  0  0  0
  1  2  1  0  0  0  0
  2  3  1  0  0  0  0
  2  4  1  0  0  0  0
  4  5  1  0  0  0  0
  4  6  1  0  0  0  0
  6  7  1  0  0  0  0
  6  8  1  0  0  0  0
  8  9  1  0  0  0  0
  8 10  1  0  0  0  0
 10 11  1  0  0  0  0
  2 12  1  0  0  0  0
 10 12  1  0  0  0  0
 10 13  1  0  0  0  0
  8 14  1  0  0  0  0
  6 15  1  0  0  0  0
  4 16  1  0  0  0  0
  1 17  1  0  0  0  0
  1 18  1  0  0  0  0
  1 19  1  0  0  0  0
 13 20  1  0  0  0  0
 14 21  1  0  0  0  0
 15 22  1  0  0  0  0
 16 23  1  0  0  0  0
 17 24  1  0  0  0  0
M  END
