 xtb: 6.7.1 (edcfbbe)
          04062518003D

 24 24  0     0  0            999 V2000
   -2.3454   -0.9187    0.5432 C   0  0  0  0  0  0  0  0  0  0  0  0
   -0.8995   -0.4115    0.6344 C   0  0  0  0  0  0  0  0  0  0  0  0
   -0.5600   -0.4457    1.6786 H   0  0  0  0  0  0  0  0  0  0  0  0
   -0.7543    1.0295    0.1041 C   0  0  0  0  0  0  0  0  0  0  0  0
   -1.4341    1.1469   -0.7537 H   0  0  0  0  0  0  0  0  0  0  0  0
    0.6918    1.2703   -0.3821 C   0  0  0  0  0  0  0  0  0  0  0  0
    0.9459    2.3080   -0.1199 H   0  0  0  0  0  0  0  0  0  0  0  0
    1.6670    0.3195    0.3314 C   0  0  0  0  0  0  0  0  0  0  0  0
    2.6743    0.4764   -0.0818 H   0  0  0  0  0  0  0  0  0  0  0  0
    1.2788   -1.1386   -0.0002 C   0  0  0  0  0  0  0  0  0  0  0  0
    1.6299   -1.7817    0.8233 H   0  0  0  0  0  0  0  0  0  0  0  0
   -0.1155   -1.2932   -0.1579 O   0  0  0  0  0  0  0  0  0  0  0  0
    1.8929   -1.5945   -1.1483 O   0  0  0  0  0  0  0  0  0  0  0  0
    1.6664    0.4689    1.7253 O   0  0  0  0  0  0  0  0  0  0  0  0
    0.8555    1.0419   -1.7587 O   0  0  0  0  0  0  0  0  0  0  0  0
   -1.0231    1.9969    1.0893 O   0  0  0  0  0  0  0  0  0  0  0  0
   -2.8485   -0.8597   -0.7662 O   0  0  0  0  0  0  0  0  0  0  0  0
   -2.9987   -0.2927    1.1527 H   0  0  0  0  0  0  0  0  0  0  0  0
   -2.3751   -1.9451    0.9266 H   0  0  0  0  0  0  0  0  0  0  0  0
    1.6100   -1.0332   -1.8924 H   0  0  0  0  0  0  0  0  0  0  0  0
    1.9218    1.3733    1.9604 H   0  0  0  0  0  0  0  0  0  0  0  0
    0.3496    1.6926   -2.2664 H   0  0  0  0  0  0  0  0  0  0  0  0
   -1.9485    1.9409    1.3628 H   0  0  0  0  0  0  0  0  0  0  0  0
   -2.2974   -1.4264   -1.3250 H   0  0  0  0  0  0  0  0  0  0  0  0
  1  2  1  0  0  0  0
  2  3  1  0  0  0  0
  2  4  1  0  0  0  0
  4  5  1  0  0  0  0
  4  6  1  0  0  0  0
  6  7  1  0  0  0  0
  6  8  1  0  0  0  0
  8  9  1  0  0  0  0
  8 10  1  0  0  0  0
 10 11  1  0  0  0  0
  2 12  1  0  0  0  0
 10 12  1  0  0  0  0
 10 13  1  0  0  0  0
  8 14  1  0  0  0  0
  6 15  1  0  0  0  0
  4 16  1  0  0  0  0
  1 17  1  0  0  0  0
  1 18  1  0  0  0  0
  1 19  1  0  0  0  0
 13 20  1  0  0  0  0
 14 21  1  0  0  0  0
 15 22  1  0  0  0  0
 16 23  1  0  0  0  0
 17 24  1  0  0  0  0
M  END
