 xtb: 6.7.1 (edcfbbe)
          04042519483D

 16 16  0     0  0            999 V2000
   -2.5819    0.0081   -0.0178 C   0  0  0  0  0  0  0  0  0  0  0  0
   -1.8868    1.1863    0.2016 C   0  0  0  0  0  0  0  0  0  0  0  0
   -0.5032    1.1888    0.2125 C   0  0  0  0  0  0  0  0  0  0  0  0
    0.1962    0.0023    0.0088 C   0  0  0  0  0  0  0  0  0  0  0  0
   -0.5089   -1.1815   -0.1889 C   0  0  0  0  0  0  0  0  0  0  0  0
   -1.8911   -1.1776   -0.2103 C   0  0  0  0  0  0  0  0  0  0  0  0
    1.6852   -0.0599    0.0248 C   0  0  0  0  0  0  0  0  0  0  0  0
    2.2892   -1.0626    0.4057 O   0  0  0  0  0  0  0  0  0  0  0  0
    2.3287    1.0354   -0.4057 N   0  0  0  0  0  0  0  0  0  0  0  0
   -3.6610    0.0119   -0.0304 H   0  0  0  0  0  0  0  0  0  0  0  0
   -2.4250    2.1070    0.3669 H   0  0  0  0  0  0  0  0  0  0  0  0
    0.0247    2.1086    0.4120 H   0  0  0  0  0  0  0  0  0  0  0  0
    0.0495   -2.0959   -0.3262 H   0  0  0  0  0  0  0  0  0  0  0  0
   -2.4285   -2.0993   -0.3723 H   0  0  0  0  0  0  0  0  0  0  0  0
    1.8320    1.8205   -0.7886 H   0  0  0  0  0  0  0  0  0  0  0  0
    3.3356    1.0263   -0.4293 H   0  0  0  0  0  0  0  0  0  0  0  0
  1  2  4  0  0  0  0
  2  3  4  0  0  0  0
  3  4  4  0  0  0  0
  4  5  4  0  0  0  0
  1  6  4  0  0  0  0
  5  6  4  0  0  0  0
  4  7  1  0  0  0  0
  7  8  2  0  0  0  0
  7  9  4  0  0  0  0
  1 10  1  0  0  0  0
  2 11  1  0  0  0  0
  3 12  1  0  0  0  0
  5 13  1  0  0  0  0
  6 14  1  0  0  0  0
  9 15  1  0  0  0  0
  9 16  1  0  0  0  0
M  END
