 xtb: 6.7.1 (edcfbbe)
          04042517583D

 13 12  0     0  0            999 V2000
   -1.8194   -0.1010    0.3528 C   0  0  0  0  0  0  0  0  0  0  0  0
   -0.6056    0.5126   -0.3349 C   0  0  0  0  0  0  0  0  0  0  0  0
    0.5884   -0.4549   -0.4044 C   0  0  0  0  0  0  0  0  0  0  0  0
    1.7084    0.0570    0.3783 N   0  0  0  0  0  0  0  0  0  0  0  0
   -2.1666   -0.9756   -0.1930 H   0  0  0  0  0  0  0  0  0  0  0  0
   -1.5655   -0.4021    1.3657 H   0  0  0  0  0  0  0  0  0  0  0  0
   -2.6323    0.6198    0.3996 H   0  0  0  0  0  0  0  0  0  0  0  0
   -0.2932    1.3974    0.2214 H   0  0  0  0  0  0  0  0  0  0  0  0
   -0.8855    0.8311   -1.3406 H   0  0  0  0  0  0  0  0  0  0  0  0
    0.3075   -1.4179    0.0299 H   0  0  0  0  0  0  0  0  0  0  0  0
    0.8605   -0.6371   -1.4582 H   0  0  0  0  0  0  0  0  0  0  0  0
    2.0484    0.9176   -0.0382 H   0  0  0  0  0  0  0  0  0  0  0  0
    2.4718   -0.6100    0.3630 H   0  0  0  0  0  0  0  0  0  0  0  0
  1  2  1  0  0  0  0
  2  3  1  0  0  0  0
  3  4  1  0  0  0  0
  1  5  1  0  0  0  0
  1  6  1  0  0  0  0
  1  7  1  0  0  0  0
  2  8  1  0  0  0  0
  2  9  1  0  0  0  0
  3 10  1  0  0  0  0
  3 11  1  0  0  0  0
  4 12  1  0  0  0  0
  4 13  1  0  0  0  0
M  END
