 xtb: 6.7.1 (edcfbbe)
          04042518003D

 13 12  0     0  0            999 V2000
   -1.5554   -0.1251    0.5459 C   0  0  0  0  0  0  0  0  0  0  0  0
   -0.6722    0.4786   -0.5384 C   0  0  0  0  0  0  0  0  0  0  0  0
    0.6684   -0.2469   -0.6494 C   0  0  0  0  0  0  0  0  0  0  0  0
    1.4327   -0.1082    0.5838 N   0  0  0  0  0  0  0  0  0  0  0  0
   -1.8073   -1.1534    0.2989 H   0  0  0  0  0  0  0  0  0  0  0  0
   -1.0272   -0.1195    1.4947 H   0  0  0  0  0  0  0  0  0  0  0  0
   -2.4761    0.4436    0.6486 H   0  0  0  0  0  0  0  0  0  0  0  0
   -0.4868    1.5316   -0.3133 H   0  0  0  0  0  0  0  0  0  0  0  0
   -1.1791    0.4263   -1.5038 H   0  0  0  0  0  0  0  0  0  0  0  0
    0.4910   -1.3147   -0.8069 H   0  0  0  0  0  0  0  0  0  0  0  0
    1.2089    0.1382   -1.5329 H   0  0  0  0  0  0  0  0  0  0  0  0
    1.6285    0.8733    0.7522 H   0  0  0  0  0  0  0  0  0  0  0  0
    2.3207   -0.5880    0.4945 H   0  0  0  0  0  0  0  0  0  0  0  0
  1  2  1  0  0  0  0
  2  3  1  0  0  0  0
  3  4  1  0  0  0  0
  1  5  1  0  0  0  0
  1  6  1  0  0  0  0
  1  7  1  0  0  0  0
  2  8  1  0  0  0  0
  2  9  1  0  0  0  0
  3 10  1  0  0  0  0
  3 11  1  0  0  0  0
  4 12  1  0  0  0  0
  4 13  1  0  0  0  0
M  END
