 xtb: 6.7.1 (edcfbbe)
          04062518003D

 24 24  0     0  0            999 V2000
   -2.0460   -1.3900   -0.1457 C   0  0  0  0  0  0  0  0  0  0  0  0
   -1.0188   -0.5102    0.5927 C   0  0  0  0  0  0  0  0  0  0  0  0
   -1.4728   -0.1866    1.5389 H   0  0  0  0  0  0  0  0  0  0  0  0
   -0.6462    0.7255   -0.2391 C   0  0  0  0  0  0  0  0  0  0  0  0
   -0.5549    0.4547   -1.2979 H   0  0  0  0  0  0  0  0  0  0  0  0
    0.7148    1.2504    0.2349 C   0  0  0  0  0  0  0  0  0  0  0  0
    0.7003    1.3783    1.3305 H   0  0  0  0  0  0  0  0  0  0  0  0
    1.7783    0.2025   -0.1182 C   0  0  0  0  0  0  0  0  0  0  0  0
    2.0085    0.2987   -1.1895 H   0  0  0  0  0  0  0  0  0  0  0  0
    1.2291   -1.2215    0.1099 C   0  0  0  0  0  0  0  0  0  0  0  0
    2.0040   -1.7891    0.6421 H   0  0  0  0  0  0  0  0  0  0  0  0
    0.1306   -1.2561    0.9858 O   0  0  0  0  0  0  0  0  0  0  0  0
    0.9298   -1.7779   -1.1310 O   0  0  0  0  0  0  0  0  0  0  0  0
    2.9411    0.3434    0.6541 O   0  0  0  0  0  0  0  0  0  0  0  0
    1.0475    2.4690   -0.3833 O   0  0  0  0  0  0  0  0  0  0  0  0
   -1.6340    1.7237   -0.1917 O   0  0  0  0  0  0  0  0  0  0  0  0
   -3.3079   -0.7749   -0.2109 O   0  0  0  0  0  0  0  0  0  0  0  0
   -2.1862   -2.3170    0.4146 H   0  0  0  0  0  0  0  0  0  0  0  0
   -1.6709   -1.6290   -1.1489 H   0  0  0  0  0  0  0  0  0  0  0  0
    0.8378   -2.7399   -1.0548 H   0  0  0  0  0  0  0  0  0  0  0  0
    3.3052    1.2301    0.5095 H   0  0  0  0  0  0  0  0  0  0  0  0
    0.2255    2.9429   -0.5917 H   0  0  0  0  0  0  0  0  0  0  0  0
   -1.8041    1.9772    0.7286 H   0  0  0  0  0  0  0  0  0  0  0  0
   -3.2234    0.0783   -0.6643 H   0  0  0  0  0  0  0  0  0  0  0  0
  1  2  1  0  0  0  0
  2  3  1  0  0  0  0
  2  4  1  0  0  0  0
  4  5  1  0  0  0  0
  4  6  1  0  0  0  0
  6  7  1  0  0  0  0
  6  8  1  0  0  0  0
  8  9  1  0  0  0  0
  8 10  1  0  0  0  0
 10 11  1  0  0  0  0
  2 12  1  0  0  0  0
 10 12  1  0  0  0  0
 10 13  1  0  0  0  0
  8 14  1  0  0  0  0
  6 15  1  0  0  0  0
  4 16  1  0  0  0  0
  1 17  1  0  0  0  0
  1 18  1  0  0  0  0
  1 19  1  0  0  0  0
 13 20  1  0  0  0  0
 14 21  1  0  0  0  0
 15 22  1  0  0  0  0
 16 23  1  0  0  0  0
 17 24  1  0  0  0  0
M  END
