24
 xtb: 6.7.1 (edcfbbe)
C           -2.53679802743165       -0.97857211004231        0.36629367016522
C           -1.12469934049997       -0.47941021339441        0.60508304320428
H           -0.95766466916104       -0.42810281351809        1.69394166899455
C           -0.84151163581689        0.89544659825350       -0.01072755867902
H           -1.03960096946496        0.86098408783939       -1.09031382922029
C            0.61702087097518        1.25845855194027        0.22103486869392
H            0.78382714234808        1.37296691426305        1.30454558545613
C            1.53338128230290        0.16155898661296       -0.30236443540374
H            1.41934743385735        0.08593453265943       -1.39686670326563
C            1.14270587632391       -1.18137624680549        0.31002051747683
H            1.29642242273234       -1.17113508260810        1.39934877830537
O           -0.23261535733099       -1.44831707884368        0.01970585064439
O            1.90296541223554       -2.24695520242518       -0.19253928857576
O            2.89574003226141        0.41273440974201        0.04579268316425
O            0.98096723840191        2.46569568530186       -0.45866253929836
O           -1.63176550615283        1.91422797076952        0.61443777932899
O           -2.88736072400873       -1.03291481489910       -1.02145788842218
H           -3.24409762797186       -0.29438078037939        0.84391213195810
H           -2.64706294485920       -1.96612042268529        0.83432286289956
H            1.91978763153817       -2.17999678573925       -1.15901076952881
H            3.12160510686338        1.28628418159096       -0.30167787060387
H            0.46997681953898        3.18357262557299       -0.06089405408040
H           -2.50585585516960        1.90983373030926        0.20415747803813
H           -2.29153584932282       -1.66449283730842       -1.44566727067911
