 xtb: 6.7.1 (edcfbbe)
          04062518003D

 24 24  0     0  0            999 V2000
   -2.0574   -1.1819   -0.2941 C   0  0  0  0  0  0  0  0  0  0  0  0
   -1.2775   -0.3420    0.7378 C   0  0  0  0  0  0  0  0  0  0  0  0
   -1.9279   -0.2425    1.6133 H   0  0  0  0  0  0  0  0  0  0  0  0
   -0.9323    1.0843    0.2336 C   0  0  0  0  0  0  0  0  0  0  0  0
   -1.2742    1.2270   -0.7964 H   0  0  0  0  0  0  0  0  0  0  0  0
    0.5883    1.2896    0.2423 C   0  0  0  0  0  0  0  0  0  0  0  0
    0.9439    1.3597    1.2837 H   0  0  0  0  0  0  0  0  0  0  0  0
    1.2646    0.0773   -0.4104 C   0  0  0  0  0  0  0  0  0  0  0  0
    0.8539   -0.0533   -1.4221 H   0  0  0  0  0  0  0  0  0  0  0  0
    0.9723   -1.1894    0.4235 C   0  0  0  0  0  0  0  0  0  0  0  0
    1.8063   -1.3646    1.1151 H   0  0  0  0  0  0  0  0  0  0  0  0
   -0.1421   -1.0218    1.2666 O   0  0  0  0  0  0  0  0  0  0  0  0
    0.8955   -2.3308   -0.3666 O   0  0  0  0  0  0  0  0  0  0  0  0
    2.6432    0.3533   -0.4794 O   0  0  0  0  0  0  0  0  0  0  0  0
    0.8838    2.4717   -0.4538 O   0  0  0  0  0  0  0  0  0  0  0  0
   -1.6177    2.0666    0.9631 O   0  0  0  0  0  0  0  0  0  0  0  0
   -1.4141   -1.3072   -1.5467 O   0  0  0  0  0  0  0  0  0  0  0  0
   -3.0514   -0.7448   -0.4063 H   0  0  0  0  0  0  0  0  0  0  0  0
   -2.1555   -2.1944    0.1070 H   0  0  0  0  0  0  0  0  0  0  0  0
    0.1484   -2.2430   -0.9915 H   0  0  0  0  0  0  0  0  0  0  0  0
    3.0982   -0.3655   -0.9399 H   0  0  0  0  0  0  0  0  0  0  0  0
    1.8438    2.5085   -0.5878 H   0  0  0  0  0  0  0  0  0  0  0  0
   -1.2291    2.1591    1.8448 H   0  0  0  0  0  0  0  0  0  0  0  0
   -1.6941   -0.5997   -2.1416 H   0  0  0  0  0  0  0  0  0  0  0  0
  1  2  1  0  0  0  0
  2  3  1  0  0  0  0
  2  4  1  0  0  0  0
  4  5  1  0  0  0  0
  4  6  1  0  0  0  0
  6  7  1  0  0  0  0
  6  8  1  0  0  0  0
  8  9  1  0  0  0  0
  8 10  1  0  0  0  0
 10 11  1  0  0  0  0
  2 12  1  0  0  0  0
 10 12  1  0  0  0  0
 10 13  1  0  0  0  0
  8 14  1  0  0  0  0
  6 15  1  0  0  0  0
  4 16  1  0  0  0  0
  1 17  1  0  0  0  0
  1 18  1  0  0  0  0
  1 19  1  0  0  0  0
 13 20  1  0  0  0  0
 14 21  1  0  0  0  0
 15 22  1  0  0  0  0
 16 23  1  0  0  0  0
 17 24  1  0  0  0  0
M  END
