 xtb: 6.7.1 (edcfbbe)
          04062518003D

 24 24  0     0  0            999 V2000
   -1.9525   -1.2580   -0.3557 C   0  0  0  0  0  0  0  0  0  0  0  0
   -1.2700   -0.4130    0.7339 C   0  0  0  0  0  0  0  0  0  0  0  0
   -1.9563   -0.3634    1.5857 H   0  0  0  0  0  0  0  0  0  0  0  0
   -0.9825    1.0307    0.2482 C   0  0  0  0  0  0  0  0  0  0  0  0
   -1.3602    1.1423   -0.7730 H   0  0  0  0  0  0  0  0  0  0  0  0
    0.5360    1.2755    0.2400 C   0  0  0  0  0  0  0  0  0  0  0  0
    0.8910    1.3525    1.2771 H   0  0  0  0  0  0  0  0  0  0  0  0
    1.2246    0.0733   -0.4291 C   0  0  0  0  0  0  0  0  0  0  0  0
    0.7588   -0.1430   -1.3961 H   0  0  0  0  0  0  0  0  0  0  0  0
    1.0216   -1.1574    0.4774 C   0  0  0  0  0  0  0  0  0  0  0  0
    1.8570   -1.2157    1.1941 H   0  0  0  0  0  0  0  0  0  0  0  0
   -0.1180   -1.0308    1.2995 O   0  0  0  0  0  0  0  0  0  0  0  0
    0.9755   -2.2964   -0.3155 O   0  0  0  0  0  0  0  0  0  0  0  0
    2.5794    0.3074   -0.6990 O   0  0  0  0  0  0  0  0  0  0  0  0
    0.8898    2.4952   -0.3510 O   0  0  0  0  0  0  0  0  0  0  0  0
   -1.6787    1.9921    0.9983 O   0  0  0  0  0  0  0  0  0  0  0  0
   -1.3854   -1.0090   -1.6231 O   0  0  0  0  0  0  0  0  0  0  0  0
   -3.0161   -0.9857   -0.3652 H   0  0  0  0  0  0  0  0  0  0  0  0
   -1.8514   -2.3130   -0.0809 H   0  0  0  0  0  0  0  0  0  0  0  0
    1.0151   -3.0924    0.2366 H   0  0  0  0  0  0  0  0  0  0  0  0
    2.9955    0.7543    0.0532 H   0  0  0  0  0  0  0  0  0  0  0  0
    0.6324    2.4959   -1.2839 H   0  0  0  0  0  0  0  0  0  0  0  0
   -1.2922    2.0677    1.8827 H   0  0  0  0  0  0  0  0  0  0  0  0
   -1.7604   -1.6296   -2.2631 H   0  0  0  0  0  0  0  0  0  0  0  0
  1  2  1  0  0  0  0
  2  3  1  0  0  0  0
  2  4  1  0  0  0  0
  4  5  1  0  0  0  0
  4  6  1  0  0  0  0
  6  7  1  0  0  0  0
  6  8  1  0  0  0  0
  8  9  1  0  0  0  0
  8 10  1  0  0  0  0
 10 11  1  0  0  0  0
  2 12  1  0  0  0  0
 10 12  1  0  0  0  0
 10 13  1  0  0  0  0
  8 14  1  0  0  0  0
  6 15  1  0  0  0  0
  4 16  1  0  0  0  0
  1 17  1  0  0  0  0
  1 18  1  0  0  0  0
  1 19  1  0  0  0  0
 13 20  1  0  0  0  0
 14 21  1  0  0  0  0
 15 22  1  0  0  0  0
 16 23  1  0  0  0  0
 17 24  1  0  0  0  0
M  END
