 xtb: 6.7.1 (edcfbbe)
          04032521433D

  7  6  0     0  0            999 V2000
    1.2903    0.0000    0.0000 C   0  0  0  0  0  0  0  0  0  0  0  0
   -0.1549   -0.0001   -0.0001 C   0  0  0  0  0  0  0  0  0  0  0  0
   -1.3518    0.0001    0.0000 C   0  0  0  0  0  0  0  0  0  0  0  0
    1.6598   -0.9589   -0.3597 H   0  0  0  0  0  0  0  0  0  0  0  0
    1.6595    0.7913   -0.6505 H   0  0  0  0  0  0  0  0  0  0  0  0
    1.6595    0.1680    1.0104 H   0  0  0  0  0  0  0  0  0  0  0  0
   -2.4002    0.0001   -0.0000 H   0  0  0  0  0  0  0  0  0  0  0  0
  1  2  1  0  0  0  0
  2  3  3  0  0  0  0
  1  4  1  0  0  0  0
  1  5  1  0  0  0  0
  1  6  1  0  0  0  0
  3  7  1  0  0  0  0
M  END
