 xtb: 6.7.1 (edcfbbe)
          04042516023D

 14 13  0     0  0            999 V2000
   -2.0973   -0.5747   -0.7099 C   0  0  0  0  0  0  0  0  0  0  0  0
   -1.3608   -0.3066    0.6061 C   0  0  0  0  0  0  0  0  0  0  0  0
   -0.0093    0.2879    0.3091 C   0  0  0  0  0  0  0  0  0  0  0  0
    0.2563    1.4714    0.3534 O   0  0  0  0  0  0  0  0  0  0  0  0
    0.8630   -0.6453   -0.0507 O   0  0  0  0  0  0  0  0  0  0  0  0
    2.1834   -0.2382   -0.4194 C   0  0  0  0  0  0  0  0  0  0  0  0
   -2.2181    0.3495   -1.2702 H   0  0  0  0  0  0  0  0  0  0  0  0
   -1.5378   -1.2822   -1.3161 H   0  0  0  0  0  0  0  0  0  0  0  0
   -3.0795   -0.9879   -0.5018 H   0  0  0  0  0  0  0  0  0  0  0  0
   -1.2221   -1.2416    1.1471 H   0  0  0  0  0  0  0  0  0  0  0  0
   -1.9224    0.4008    1.2149 H   0  0  0  0  0  0  0  0  0  0  0  0
    2.8107   -0.1993    0.4712 H   0  0  0  0  0  0  0  0  0  0  0  0
    2.1535    0.7474   -0.8852 H   0  0  0  0  0  0  0  0  0  0  0  0
    2.5493   -0.9904   -1.1123 H   0  0  0  0  0  0  0  0  0  0  0  0
  1  2  1  0  0  0  0
  2  3  1  0  0  0  0
  3  4  2  0  0  0  0
  3  5  1  0  0  0  0
  5  6  1  0  0  0  0
  1  7  1  0  0  0  0
  1  8  1  0  0  0  0
  1  9  1  0  0  0  0
  2 10  1  0  0  0  0
  2 11  1  0  0  0  0
  6 12  1  0  0  0  0
  6 13  1  0  0  0  0
  6 14  1  0  0  0  0
M  END
