 xtb: 6.7.1 (edcfbbe)
          04062518003D

 24 24  0     0  0            999 V2000
   -2.2074   -0.9941   -0.4381 C   0  0  0  0  0  0  0  0  0  0  0  0
   -1.1716   -0.2249    0.3884 C   0  0  0  0  0  0  0  0  0  0  0  0
   -1.6844    0.1974    1.2600 H   0  0  0  0  0  0  0  0  0  0  0  0
   -0.5742    0.9195   -0.4403 C   0  0  0  0  0  0  0  0  0  0  0  0
   -0.4027    0.5742   -1.4740 H   0  0  0  0  0  0  0  0  0  0  0  0
    0.7766    1.3135    0.1803 C   0  0  0  0  0  0  0  0  0  0  0  0
    0.6272    1.4881    1.2529 H   0  0  0  0  0  0  0  0  0  0  0  0
    1.7573    0.1536   -0.0241 C   0  0  0  0  0  0  0  0  0  0  0  0
    2.1143    0.1538   -1.0606 H   0  0  0  0  0  0  0  0  0  0  0  0
    1.0220   -1.1971    0.1921 C   0  0  0  0  0  0  0  0  0  0  0  0
    1.6574   -1.8366    0.8218 H   0  0  0  0  0  0  0  0  0  0  0  0
   -0.1615   -1.0661    0.9386 O   0  0  0  0  0  0  0  0  0  0  0  0
    0.8102   -1.7738   -1.0592 O   0  0  0  0  0  0  0  0  0  0  0  0
    2.9106    0.2627    0.7633 O   0  0  0  0  0  0  0  0  0  0  0  0
    1.2320    2.5377   -0.3341 O   0  0  0  0  0  0  0  0  0  0  0  0
   -1.4732    1.9971   -0.4486 O   0  0  0  0  0  0  0  0  0  0  0  0
   -2.8953   -1.8952    0.3981 O   0  0  0  0  0  0  0  0  0  0  0  0
   -1.6997   -1.5224   -1.2540 H   0  0  0  0  0  0  0  0  0  0  0  0
   -2.8908   -0.2460   -0.8595 H   0  0  0  0  0  0  0  0  0  0  0  0
    0.5511   -2.7026   -0.9566 H   0  0  0  0  0  0  0  0  0  0  0  0
    2.6718    0.3680    1.6958 H   0  0  0  0  0  0  0  0  0  0  0  0
    1.6164    2.4086   -1.2136 H   0  0  0  0  0  0  0  0  0  0  0  0
   -0.9543    2.8184   -0.5076 H   0  0  0  0  0  0  0  0  0  0  0  0
   -3.5835   -2.3416   -0.1151 H   0  0  0  0  0  0  0  0  0  0  0  0
  1  2  1  0  0  0  0
  2  3  1  0  0  0  0
  2  4  1  0  0  0  0
  4  5  1  0  0  0  0
  4  6  1  0  0  0  0
  6  7  1  0  0  0  0
  6  8  1  0  0  0  0
  8  9  1  0  0  0  0
  8 10  1  0  0  0  0
 10 11  1  0  0  0  0
  2 12  1  0  0  0  0
 10 12  1  0  0  0  0
 10 13  1  0  0  0  0
  8 14  1  0  0  0  0
  6 15  1  0  0  0  0
  4 16  1  0  0  0  0
  1 17  1  0  0  0  0
  1 18  1  0  0  0  0
  1 19  1  0  0  0  0
 13 20  1  0  0  0  0
 14 21  1  0  0  0  0
 15 22  1  0  0  0  0
 16 23  1  0  0  0  0
 17 24  1  0  0  0  0
M  END
