 xtb: 6.7.1 (edcfbbe)
          04042518453D

 14 13  0     0  0            999 V2000
    1.9386   -0.1338   -0.0000 C   0  0  0  0  0  0  0  0  0  0  0  0
    0.5610    0.5181   -0.0000 C   0  0  0  0  0  0  0  0  0  0  0  0
   -0.5610   -0.5181   -0.0000 C   0  0  0  0  0  0  0  0  0  0  0  0
   -1.9386    0.1338   -0.0000 C   0  0  0  0  0  0  0  0  0  0  0  0
    2.0641   -0.7585   -0.8817 H   0  0  0  0  0  0  0  0  0  0  0  0
    2.7200    0.6222   -0.0000 H   0  0  0  0  0  0  0  0  0  0  0  0
    2.0641   -0.7585    0.8817 H   0  0  0  0  0  0  0  0  0  0  0  0
    0.4609    1.1554    0.8816 H   0  0  0  0  0  0  0  0  0  0  0  0
    0.4609    1.1554   -0.8816 H   0  0  0  0  0  0  0  0  0  0  0  0
   -0.4609   -1.1554   -0.8816 H   0  0  0  0  0  0  0  0  0  0  0  0
   -0.4609   -1.1554    0.8816 H   0  0  0  0  0  0  0  0  0  0  0  0
   -2.0641    0.7585    0.8817 H   0  0  0  0  0  0  0  0  0  0  0  0
   -2.7200   -0.6222   -0.0000 H   0  0  0  0  0  0  0  0  0  0  0  0
   -2.0641    0.7584   -0.8818 H   0  0  0  0  0  0  0  0  0  0  0  0
  1  2  1  0  0  0  0
  2  3  1  0  0  0  0
  3  4  1  0  0  0  0
  1  5  1  0  0  0  0
  1  6  1  0  0  0  0
  1  7  1  0  0  0  0
  2  8  1  0  0  0  0
  2  9  1  0  0  0  0
  3 10  1  0  0  0  0
  3 11  1  0  0  0  0
  4 12  1  0  0  0  0
  4 13  1  0  0  0  0
  4 14  1  0  0  0  0
M  END
