 xtb: 6.7.1 (edcfbbe)
          04062511443D

 27 27  0     0  0            999 V2000
    3.3009   -0.3182    0.8952 C   0  0  0  0  0  0  0  0  0  0  0  0
    1.9384   -0.1753    0.3134 C   0  0  0  0  0  0  0  0  0  0  0  0
    1.4275    1.0194   -0.0243 C   0  0  0  0  0  0  0  0  0  0  0  0
    0.0925    1.2128   -0.5493 C   0  0  0  0  0  0  0  0  0  0  0  0
   -0.3578    2.3401   -0.7530 O   0  0  0  0  0  0  0  0  0  0  0  0
   -0.7645   -0.0103   -0.8199 C   0  0  0  0  0  0  0  0  0  0  0  0
   -1.2270    0.1696   -1.7990 H   0  0  0  0  0  0  0  0  0  0  0  0
    0.0648   -1.2927   -0.9193 C   0  0  0  0  0  0  0  0  0  0  0  0
    1.1506   -1.4307    0.1444 C   0  0  0  0  0  0  0  0  0  0  0  0
   -1.9468   -0.0085    0.1832 C   0  0  0  0  0  0  0  0  0  0  0  0
   -3.0446   -0.9789   -0.2477 C   0  0  0  0  0  0  0  0  0  0  0  0
   -1.5354   -0.2885    1.6267 C   0  0  0  0  0  0  0  0  0  0  0  0
    3.9425   -0.8502    0.1940 H   0  0  0  0  0  0  0  0  0  0  0  0
    3.2571   -0.9085    1.8084 H   0  0  0  0  0  0  0  0  0  0  0  0
    3.7446    0.6492    1.1113 H   0  0  0  0  0  0  0  0  0  0  0  0
    1.9993    1.9273    0.1154 H   0  0  0  0  0  0  0  0  0  0  0  0
   -0.5957   -2.1586   -0.8884 H   0  0  0  0  0  0  0  0  0  0  0  0
    0.5525   -1.2882   -1.8974 H   0  0  0  0  0  0  0  0  0  0  0  0
    0.7175   -1.6870    1.1133 H   0  0  0  0  0  0  0  0  0  0  0  0
    1.8207   -2.2484   -0.1280 H   0  0  0  0  0  0  0  0  0  0  0  0
   -2.3564    1.0092    0.1404 H   0  0  0  0  0  0  0  0  0  0  0  0
   -3.3680   -0.7713   -1.2648 H   0  0  0  0  0  0  0  0  0  0  0  0
   -3.9028   -0.8772    0.4120 H   0  0  0  0  0  0  0  0  0  0  0  0
   -2.6987   -2.0079   -0.1956 H   0  0  0  0  0  0  0  0  0  0  0  0
   -2.3612   -0.0456    2.2922 H   0  0  0  0  0  0  0  0  0  0  0  0
   -0.6808    0.3205    1.9122 H   0  0  0  0  0  0  0  0  0  0  0  0
   -1.2960   -1.3391    1.7639 H   0  0  0  0  0  0  0  0  0  0  0  0
  1  2  1  0  0  0  0
  2  3  2  0  0  0  0
  3  4  1  0  0  0  0
  4  5  2  0  0  0  0
  4  6  1  0  0  0  0
  6  7  1  0  0  0  0
  6  8  1  0  0  0  0
  2  9  1  0  0  0  0
  8  9  1  0  0  0  0
  6 10  1  0  0  0  0
 10 11  1  0  0  0  0
 10 12  1  0  0  0  0
  1 13  1  0  0  0  0
  1 14  1  0  0  0  0
  1 15  1  0  0  0  0
  3 16  1  0  0  0  0
  8 17  1  0  0  0  0
  8 18  1  0  0  0  0
  9 19  1  0  0  0  0
  9 20  1  0  0  0  0
 10 21  1  0  0  0  0
 11 22  1  0  0  0  0
 11 23  1  0  0  0  0
 11 24  1  0  0  0  0
 12 25  1  0  0  0  0
 12 26  1  0  0  0  0
 12 27  1  0  0  0  0
M  END
