 xtb: 6.7.1 (edcfbbe)
          04032521513D

 10  9  0     0  0            999 V2000
   -1.6262   -0.4987    0.0012 C   0  0  0  0  0  0  0  0  0  0  0  0
   -0.6178    0.6514   -0.0026 C   0  0  0  0  0  0  0  0  0  0  0  0
    0.7449    0.1579   -0.0004 C   0  0  0  0  0  0  0  0  0  0  0  0
    1.8611   -0.2743    0.0016 C   0  0  0  0  0  0  0  0  0  0  0  0
   -1.4918   -1.1186    0.8848 H   0  0  0  0  0  0  0  0  0  0  0  0
   -1.4929   -1.1235   -0.8791 H   0  0  0  0  0  0  0  0  0  0  0  0
   -2.6399   -0.1058    0.0007 H   0  0  0  0  0  0  0  0  0  0  0  0
   -0.7645    1.2782    0.8811 H   0  0  0  0  0  0  0  0  0  0  0  0
   -0.7641    1.2721   -0.8907 H   0  0  0  0  0  0  0  0  0  0  0  0
    2.8434   -0.6412    0.0032 H   0  0  0  0  0  0  0  0  0  0  0  0
  1  2  1  0  0  0  0
  2  3  1  0  0  0  0
  3  4  3  0  0  0  0
  1  5  1  0  0  0  0
  1  6  1  0  0  0  0
  1  7  1  0  0  0  0
  2  8  1  0  0  0  0
  2  9  1  0  0  0  0
  4 10  1  0  0  0  0
M  END
