 xtb: 6.7.1 (edcfbbe)
          04032521143D

 14 14  0     0  0            999 V2000
   -1.0393    0.7708   -0.0899 C   0  0  0  0  0  0  0  0  0  0  0  0
   -1.0370   -0.7699   -0.1090 C   0  0  0  0  0  0  0  0  0  0  0  0
    0.4133   -1.1515    0.2101 C   0  0  0  0  0  0  0  0  0  0  0  0
    1.1687   -0.0035   -0.2614 N   0  0  0  0  0  0  0  0  0  0  0  0
    0.4187    1.1534    0.1981 C   0  0  0  0  0  0  0  0  0  0  0  0
   -1.7069    1.1698    0.6712 H   0  0  0  0  0  0  0  0  0  0  0  0
   -1.3478    1.1630   -1.0566 H   0  0  0  0  0  0  0  0  0  0  0  0
   -1.7266   -1.1920    0.6189 H   0  0  0  0  0  0  0  0  0  0  0  0
   -1.3104   -1.1373   -1.0960 H   0  0  0  0  0  0  0  0  0  0  0  0
    0.5289   -1.3137    1.2961 H   0  0  0  0  0  0  0  0  0  0  0  0
    0.7388   -2.0525   -0.3109 H   0  0  0  0  0  0  0  0  0  0  0  0
    2.1217   -0.0032    0.0838 H   0  0  0  0  0  0  0  0  0  0  0  0
    0.5519    1.3375    1.2784 H   0  0  0  0  0  0  0  0  0  0  0  0
    0.7379    2.0434   -0.3456 H   0  0  0  0  0  0  0  0  0  0  0  0
  1  2  1  0  0  0  0
  2  3  1  0  0  0  0
  3  4  1  0  0  0  0
  1  5  1  0  0  0  0
  4  5  1  0  0  0  0
  1  6  1  0  0  0  0
  1  7  1  0  0  0  0
  2  8  1  0  0  0  0
  2  9  1  0  0  0  0
  3 10  1  0  0  0  0
  3 11  1  0  0  0  0
  4 12  1  0  0  0  0
  5 13  1  0  0  0  0
  5 14  1  0  0  0  0
M  END
