 xtb: 6.7.1 (edcfbbe)
          04062505533D

 31 32  0     0  0            999 V2000
    1.5040    2.5346    1.1553 C   0  0  0  0  0  0  0  0  0  0  0  0
    1.7573    1.6587   -0.0703 C   0  0  0  0  0  0  0  0  0  0  0  0
    2.7936    0.5448    0.2260 C   0  0  0  0  0  0  0  0  0  0  0  0
    1.9749   -0.7070    0.1471 C   0  0  0  0  0  0  0  0  0  0  0  0
    2.3108   -2.0285    0.3390 C   0  0  0  0  0  0  0  0  0  0  0  0
    1.3272   -2.9977    0.1868 C   0  0  0  0  0  0  0  0  0  0  0  0
    0.0295   -2.6438   -0.1371 C   0  0  0  0  0  0  0  0  0  0  0  0
   -0.3117   -1.3118   -0.3336 C   0  0  0  0  0  0  0  0  0  0  0  0
    0.6734   -0.3445   -0.1985 C   0  0  0  0  0  0  0  0  0  0  0  0
    0.5065    0.9822   -0.3885 O   0  0  0  0  0  0  0  0  0  0  0  0
   -1.6198   -0.9756   -0.6923 O   0  0  0  0  0  0  0  0  0  0  0  0
   -2.2748   -0.0912    0.1119 C   0  0  0  0  0  0  0  0  0  0  0  0
   -1.8663    0.2603    1.2027 O   0  0  0  0  0  0  0  0  0  0  0  0
   -3.4197    0.2889   -0.4600 N   0  0  0  0  0  0  0  0  0  0  0  0
   -4.3592    1.1863    0.1729 C   0  0  0  0  0  0  0  0  0  0  0  0
    2.1460    2.5023   -1.2813 C   0  0  0  0  0  0  0  0  0  0  0  0
    0.7299    3.2645    0.9335 H   0  0  0  0  0  0  0  0  0  0  0  0
    1.1596    1.9175    1.9827 H   0  0  0  0  0  0  0  0  0  0  0  0
    2.4153    3.0513    1.4404 H   0  0  0  0  0  0  0  0  0  0  0  0
    3.5948    0.5396   -0.5142 H   0  0  0  0  0  0  0  0  0  0  0  0
    3.2381    0.6710    1.2130 H   0  0  0  0  0  0  0  0  0  0  0  0
    3.3192   -2.3041    0.6028 H   0  0  0  0  0  0  0  0  0  0  0  0
    1.5706   -4.0377    0.3315 H   0  0  0  0  0  0  0  0  0  0  0  0
   -0.7404   -3.3907   -0.2457 H   0  0  0  0  0  0  0  0  0  0  0  0
   -3.6384   -0.0841   -1.3712 H   0  0  0  0  0  0  0  0  0  0  0  0
   -5.3167    0.6880    0.3201 H   0  0  0  0  0  0  0  0  0  0  0  0
   -4.4999    2.0756   -0.4402 H   0  0  0  0  0  0  0  0  0  0  0  0
   -3.9466    1.4726    1.1381 H   0  0  0  0  0  0  0  0  0  0  0  0
    3.0669    3.0388   -1.0749 H   0  0  0  0  0  0  0  0  0  0  0  0
    1.3570    3.2164   -1.5007 H   0  0  0  0  0  0  0  0  0  0  0  0
    2.2865    1.8641   -2.1505 H   0  0  0  0  0  0  0  0  0  0  0  0
  1  2  1  0  0  0  0
  2  3  1  0  0  0  0
  3  4  1  0  0  0  0
  4  5  4  0  0  0  0
  5  6  4  0  0  0  0
  6  7  4  0  0  0  0
  7  8  4  0  0  0  0
  4  9  4  0  0  0  0
  8  9  4  0  0  0  0
  2 10  1  0  0  0  0
  9 10  1  0  0  0  0
  8 11  1  0  0  0  0
 11 12  1  0  0  0  0
 12 13  2  0  0  0  0
 12 14  4  0  0  0  0
 14 15  1  0  0  0  0
  2 16  1  0  0  0  0
  1 17  1  0  0  0  0
  1 18  1  0  0  0  0
  1 19  1  0  0  0  0
  3 20  1  0  0  0  0
  3 21  1  0  0  0  0
  5 22  1  0  0  0  0
  6 23  1  0  0  0  0
  7 24  1  0  0  0  0
 14 25  1  0  0  0  0
 15 26  1  0  0  0  0
 15 27  1  0  0  0  0
 15 28  1  0  0  0  0
 16 29  1  0  0  0  0
 16 30  1  0  0  0  0
 16 31  1  0  0  0  0
M  END
