13
 xtb: 6.7.1 (edcfbbe)
C           -0.72674845676025       -1.16869504062526       -0.07743150132699
N           -0.00005215122681       -0.00011114852835        0.43277184021056
C           -0.64878827937800        1.21359392598253       -0.07696811936162
C            1.37535367173166       -0.04497689757337       -0.07713374682870
H           -0.74615557143541       -1.20100281780542       -1.18265893367703
H           -1.76093168235690       -1.15240539621836        0.28063063764805
H           -0.25558065811968       -2.08916576665064        0.28152920072359
H           -0.11728501872585        2.10095377347531        0.28107111598193
H           -1.68135736270523        1.26585336269714        0.28236360720359
H           -0.66754773137989        1.24692305706880       -1.18219832836483
H            1.93640596444647        0.82373475222069        0.28160106932611
H            1.41395993332578       -0.04612943067737       -1.18239851843180
H            1.87867513996025       -0.94839528287298        0.28149982203370
