21
 xtb: 6.7.1 (edcfbbe)
C            2.51024026722928       -0.00005455254348       -0.08095343059460
C            1.02277869763235       -0.00088919615230        0.32533356329687
C            0.29711858026751        1.25453675004390       -0.17528945705226
C           -1.18101105753282        1.26028231313246        0.21784632617622
C           -1.89003875322067        0.00067893295696       -0.28327016486315
C           -1.18142795537832       -1.26018123679252        0.21519896590549
C            0.29660111342951       -1.25469459940656       -0.17834513512507
H            3.17359787348901        0.02443233105879        0.78899024515858
H            2.76737967004022       -0.89296925539258       -0.66119394567742
H            2.75508088462875        0.86926030785761       -0.70109993776829
H            0.95147276303663       -0.00239337148520        1.42275834645944
H            0.79872409775288        2.14996298372923        0.21375439902762
H            0.38364276843797        1.29282830308427       -1.27166891239894
H           -1.26301736510460        1.30771506570548        1.31294732523269
H           -1.67337360117675        2.15712666431887       -0.17695397432091
H           -2.93818841886420        0.00050690242628        0.03861285212239
H           -1.89202335536776        0.00176974242691       -1.38238554752043
H           -1.26278208236584       -1.30931283629305        1.31030862081620
H           -1.67452627735742       -2.15614527952187       -0.18067433841945
H            0.79752037723016       -2.15099501071925        0.20946068386770
H            0.38326627784586       -1.29129876433716       -1.27477951158198
