 xtb: 6.7.1 (edcfbbe)
          04032520583D

 14 14  0     0  0            999 V2000
   -1.8539    0.0000   -0.0060 C   0  0  0  0  0  0  0  0  0  0  0  0
   -1.1536   -1.1956   -0.0016 C   0  0  0  0  0  0  0  0  0  0  0  0
    0.2267   -1.2005    0.0084 C   0  0  0  0  0  0  0  0  0  0  0  0
    0.9422   -0.0000    0.0119 C   0  0  0  0  0  0  0  0  0  0  0  0
    0.2267    1.2005    0.0084 C   0  0  0  0  0  0  0  0  0  0  0  0
   -1.1536    1.1956   -0.0016 C   0  0  0  0  0  0  0  0  0  0  0  0
    2.3159   -0.0000   -0.0509 N   0  0  0  0  0  0  0  0  0  0  0  0
   -2.9334    0.0000   -0.0109 H   0  0  0  0  0  0  0  0  0  0  0  0
   -1.6895   -2.1339   -0.0026 H   0  0  0  0  0  0  0  0  0  0  0  0
    0.7657   -2.1371    0.0119 H   0  0  0  0  0  0  0  0  0  0  0  0
    0.7657    2.1371    0.0119 H   0  0  0  0  0  0  0  0  0  0  0  0
   -1.6895    2.1339   -0.0026 H   0  0  0  0  0  0  0  0  0  0  0  0
    2.7766   -0.8501    0.2278 H   0  0  0  0  0  0  0  0  0  0  0  0
    2.7766    0.8500    0.2278 H   0  0  0  0  0  0  0  0  0  0  0  0
  1  2  4  0  0  0  0
  2  3  4  0  0  0  0
  3  4  4  0  0  0  0
  4  5  4  0  0  0  0
  1  6  4  0  0  0  0
  5  6  4  0  0  0  0
  4  7  1  0  0  0  0
  1  8  1  0  0  0  0
  2  9  1  0  0  0  0
  3 10  1  0  0  0  0
  5 11  1  0  0  0  0
  6 12  1  0  0  0  0
  7 13  1  0  0  0  0
  7 14  1  0  0  0  0
M  END
