19
 xtb: 6.7.1 (edcfbbe)
C           -3.33403075759390        0.76661878876678       -0.11153472901166
C           -2.47988270230972       -0.48241541124162        0.08218022724200
C           -0.98389943559623       -0.26297597458471        0.03759820971395
C           -0.39389642437858        0.98487924762144        0.25100707002078
C            0.99079980776032        1.14844977826401        0.23165493604378
C            1.81223580680589        0.04977746894225       -0.00474287323020
C            1.24930487266517       -1.20696640702913       -0.22453710476014
C           -0.13248983041610       -1.34923939200330       -0.20301723479151
O            3.18853537270926        0.14885424615289       -0.03873731962354
H           -4.39373782181247        0.49586206429080       -0.14048210469400
H           -3.08952175869739        1.27410247267392       -1.05099990068948
H           -3.20164006533954        1.48358941397328        0.70454351475991
H           -2.73938414513562       -1.22419667460005       -0.68229839402481
H           -2.73957562325418       -0.94659465132935        1.04368331404717
H           -1.01273454102772        1.85693574065878        0.43549333173270
H            1.43192070297032        2.12799746387456        0.39779352783154
H            1.89541142556517       -2.05812802145554       -0.41609496391641
H           -0.56307475318060       -2.33192994535948       -0.37935936137054
H            3.44074269357531        1.06876999349118        0.12186815376899
