 xtb: 6.7.1 (edcfbbe)
          04062511443D

 31 31  0     0  0            999 V2000
    3.0593   -0.0719    0.2580 C   0  0  0  0  0  0  0  0  0  0  0  0
    1.9490    0.1570   -0.7670 C   0  0  0  0  0  0  0  0  0  0  0  0
    2.4297    0.3029   -1.7429 H   0  0  0  0  0  0  0  0  0  0  0  0
    1.1293    1.4111   -0.4509 C   0  0  0  0  0  0  0  0  0  0  0  0
    0.2213    1.2028    0.7560 C   0  0  0  0  0  0  0  0  0  0  0  0
   -0.7803    0.0636    0.5359 C   0  0  0  0  0  0  0  0  0  0  0  0
   -1.3093   -0.0969    1.4834 H   0  0  0  0  0  0  0  0  0  0  0  0
    0.0234   -1.2218    0.2671 C   0  0  0  0  0  0  0  0  0  0  0  0
   -0.6711   -2.0307   -0.0094 H   0  0  0  0  0  0  0  0  0  0  0  0
    1.0211   -1.0577   -0.8882 C   0  0  0  0  0  0  0  0  0  0  0  0
    0.6462   -1.5839    1.4909 O   0  0  0  0  0  0  0  0  0  0  0  0
   -1.8421    0.3419   -0.5478 C   0  0  0  0  0  0  0  0  0  0  0  0
   -2.9624   -0.6998   -0.5010 C   0  0  0  0  0  0  0  0  0  0  0  0
   -2.4684    1.7280   -0.3833 C   0  0  0  0  0  0  0  0  0  0  0  0
    3.6782   -0.9156   -0.0403 H   0  0  0  0  0  0  0  0  0  0  0  0
    3.6944    0.8087    0.3263 H   0  0  0  0  0  0  0  0  0  0  0  0
    2.6458   -0.2786    1.2401 H   0  0  0  0  0  0  0  0  0  0  0  0
    1.8062    2.2459   -0.2573 H   0  0  0  0  0  0  0  0  0  0  0  0
    0.5243    1.6715   -1.3215 H   0  0  0  0  0  0  0  0  0  0  0  0
    0.8277    0.9414    1.6242 H   0  0  0  0  0  0  0  0  0  0  0  0
   -0.3026    2.1272    0.9949 H   0  0  0  0  0  0  0  0  0  0  0  0
    1.6239   -1.9662   -0.9664 H   0  0  0  0  0  0  0  0  0  0  0  0
    0.4421   -0.9716   -1.8093 H   0  0  0  0  0  0  0  0  0  0  0  0
    1.1172   -2.4180    1.3662 H   0  0  0  0  0  0  0  0  0  0  0  0
   -1.3712    0.2939   -1.5340 H   0  0  0  0  0  0  0  0  0  0  0  0
   -2.5928   -1.7025   -0.6958 H   0  0  0  0  0  0  0  0  0  0  0  0
   -3.7148   -0.4710   -1.2522 H   0  0  0  0  0  0  0  0  0  0  0  0
   -3.4405   -0.6938    0.4761 H   0  0  0  0  0  0  0  0  0  0  0  0
   -3.3046    1.8371   -1.0702 H   0  0  0  0  0  0  0  0  0  0  0  0
   -1.7558    2.5184   -0.5988 H   0  0  0  0  0  0  0  0  0  0  0  0
   -2.8406    1.8575    0.6305 H   0  0  0  0  0  0  0  0  0  0  0  0
  1  2  1  0  0  0  0
  2  3  1  0  0  0  0
  2  4  1  0  0  0  0
  4  5  1  0  0  0  0
  5  6  1  0  0  0  0
  6  7  1  0  0  0  0
  6  8  1  0  0  0  0
  8  9  1  0  0  0  0
  2 10  1  0  0  0  0
  8 10  1  0  0  0  0
  8 11  1  0  0  0  0
  6 12  1  0  0  0  0
 12 13  1  0  0  0  0
 12 14  1  0  0  0  0
  1 15  1  0  0  0  0
  1 16  1  0  0  0  0
  1 17  1  0  0  0  0
  4 18  1  0  0  0  0
  4 19  1  0  0  0  0
  5 20  1  0  0  0  0
  5 21  1  0  0  0  0
 10 22  1  0  0  0  0
 10 23  1  0  0  0  0
 11 24  1  0  0  0  0
 12 25  1  0  0  0  0
 13 26  1  0  0  0  0
 13 27  1  0  0  0  0
 13 28  1  0  0  0  0
 14 29  1  0  0  0  0
 14 30  1  0  0  0  0
 14 31  1  0  0  0  0
M  END
