 xtb: 6.7.1 (edcfbbe)
          04052508543D

 20 20  0     0  0            999 V2000
   -2.3323    1.2369    0.0531 C   0  0  0  0  0  0  0  0  0  0  0  0
   -1.6049   -0.0002   -0.1154 N   0  0  0  0  0  0  0  0  0  0  0  0
   -2.3320   -1.2370    0.0567 C   0  0  0  0  0  0  0  0  0  0  0  0
   -0.2346    0.0000   -0.0423 C   0  0  0  0  0  0  0  0  0  0  0  0
    0.4978   -1.1975   -0.0204 C   0  0  0  0  0  0  0  0  0  0  0  0
    1.8775   -1.1903    0.0119 C   0  0  0  0  0  0  0  0  0  0  0  0
    2.5844    0.0001    0.0287 C   0  0  0  0  0  0  0  0  0  0  0  0
    1.8774    1.1904    0.0138 C   0  0  0  0  0  0  0  0  0  0  0  0
    0.4977    1.1975   -0.0184 C   0  0  0  0  0  0  0  0  0  0  0  0
   -2.1349    1.7000    1.0265 H   0  0  0  0  0  0  0  0  0  0  0  0
   -3.3977    1.0391   -0.0254 H   0  0  0  0  0  0  0  0  0  0  0  0
   -2.0628    1.9446   -0.7330 H   0  0  0  0  0  0  0  0  0  0  0  0
   -3.3976   -1.0389   -0.0169 H   0  0  0  0  0  0  0  0  0  0  0  0
   -2.1302   -1.6995    1.0295 H   0  0  0  0  0  0  0  0  0  0  0  0
   -2.0662   -1.9454   -0.7302 H   0  0  0  0  0  0  0  0  0  0  0  0
   -0.0082   -2.1484   -0.0283 H   0  0  0  0  0  0  0  0  0  0  0  0
    2.4085   -2.1319    0.0277 H   0  0  0  0  0  0  0  0  0  0  0  0
    3.6637    0.0001    0.0562 H   0  0  0  0  0  0  0  0  0  0  0  0
    2.4084    2.1319    0.0315 H   0  0  0  0  0  0  0  0  0  0  0  0
   -0.0084    2.1485   -0.0244 H   0  0  0  0  0  0  0  0  0  0  0  0
  1  2  1  0  0  0  0
  2  3  1  0  0  0  0
  2  4  1  0  0  0  0
  4  5  4  0  0  0  0
  5  6  4  0  0  0  0
  6  7  4  0  0  0  0
  7  8  4  0  0  0  0
  4  9  4  0  0  0  0
  8  9  4  0  0  0  0
  1 10  1  0  0  0  0
  1 11  1  0  0  0  0
  1 12  1  0  0  0  0
  3 13  1  0  0  0  0
  3 14  1  0  0  0  0
  3 15  1  0  0  0  0
  5 16  1  0  0  0  0
  6 17  1  0  0  0  0
  7 18  1  0  0  0  0
  8 19  1  0  0  0  0
  9 20  1  0  0  0  0
M  END
