 xtb: 6.7.1 (edcfbbe)
          04062520053D

 27 27  0     0  0            999 V2000
   -3.4180    0.5932    0.0635 C   0  0  0  0  0  0  0  0  0  0  0  0
   -1.9229    0.4981    0.0732 C   0  0  0  0  0  0  0  0  0  0  0  0
   -1.1286    1.5064   -0.2602 C   0  0  0  0  0  0  0  0  0  0  0  0
    0.3669    1.4494   -0.2655 C   0  0  0  0  0  0  0  0  0  0  0  0
    0.8712    0.0014   -0.2885 C   0  0  0  0  0  0  0  0  0  0  0  0
    0.6224   -0.4203   -1.2690 H   0  0  0  0  0  0  0  0  0  0  0  0
    0.1241   -0.7905    0.7868 C   0  0  0  0  0  0  0  0  0  0  0  0
   -1.3741   -0.8557    0.4707 C   0  0  0  0  0  0  0  0  0  0  0  0
   -1.9144   -1.2125    1.3569 H   0  0  0  0  0  0  0  0  0  0  0  0
   -1.6733   -1.8387   -0.5146 O   0  0  0  0  0  0  0  0  0  0  0  0
    2.3711   -0.0584   -0.1317 C   0  0  0  0  0  0  0  0  0  0  0  0
    3.1543   -0.2920   -1.1739 C   0  0  0  0  0  0  0  0  0  0  0  0
    2.9329    0.1669    1.2389 C   0  0  0  0  0  0  0  0  0  0  0  0
   -3.8364   -0.2605   -0.4678 H   0  0  0  0  0  0  0  0  0  0  0  0
   -3.7505    1.5121   -0.4110 H   0  0  0  0  0  0  0  0  0  0  0  0
   -3.7994    0.5659    1.0839 H   0  0  0  0  0  0  0  0  0  0  0  0
   -1.5619    2.4599   -0.5324 H   0  0  0  0  0  0  0  0  0  0  0  0
    0.7541    1.9903   -1.1321 H   0  0  0  0  0  0  0  0  0  0  0  0
    0.7399    1.9618    0.6265 H   0  0  0  0  0  0  0  0  0  0  0  0
    0.5115   -1.8094    0.8501 H   0  0  0  0  0  0  0  0  0  0  0  0
    0.2486   -0.3074    1.7558 H   0  0  0  0  0  0  0  0  0  0  0  0
   -1.2160   -1.6045   -1.3335 H   0  0  0  0  0  0  0  0  0  0  0  0
    4.2273   -0.3193   -1.0855 H   0  0  0  0  0  0  0  0  0  0  0  0
    2.7579   -0.4667   -2.1603 H   0  0  0  0  0  0  0  0  0  0  0  0
    2.7008   -0.6799    1.8830 H   0  0  0  0  0  0  0  0  0  0  0  0
    4.0126    0.2786    1.1943 H   0  0  0  0  0  0  0  0  0  0  0  0
    2.5069    1.0587    1.6934 H   0  0  0  0  0  0  0  0  0  0  0  0
  1  2  1  0  0  0  0
  2  3  2  0  0  0  0
  3  4  1  0  0  0  0
  4  5  1  0  0  0  0
  5  6  1  0  0  0  0
  5  7  1  0  0  0  0
  2  8  1  0  0  0  0
  7  8  1  0  0  0  0
  8  9  1  0  0  0  0
  8 10  1  0  0  0  0
  5 11  1  0  0  0  0
 11 12  2  0  0  0  0
 11 13  1  0  0  0  0
  1 14  1  0  0  0  0
  1 15  1  0  0  0  0
  1 16  1  0  0  0  0
  3 17  1  0  0  0  0
  4 18  1  0  0  0  0
  4 19  1  0  0  0  0
  7 20  1  0  0  0  0
  7 21  1  0  0  0  0
 10 22  1  0  0  0  0
 12 23  1  0  0  0  0
 12 24  1  0  0  0  0
 13 25  1  0  0  0  0
 13 26  1  0  0  0  0
 13 27  1  0  0  0  0
M  END
