 xtb: 6.7.1 (edcfbbe)
          04062518003D

 24 24  0     0  0            999 V2000
   -2.2460   -0.9944   -0.3593 C   0  0  0  0  0  0  0  0  0  0  0  0
   -1.1508   -0.2310    0.3964 C   0  0  0  0  0  0  0  0  0  0  0  0
   -1.5988    0.2043    1.2991 H   0  0  0  0  0  0  0  0  0  0  0  0
   -0.5568    0.8919   -0.4699 C   0  0  0  0  0  0  0  0  0  0  0  0
   -0.3651    0.5097   -1.4795 H   0  0  0  0  0  0  0  0  0  0  0  0
    0.7748    1.3199    0.1757 C   0  0  0  0  0  0  0  0  0  0  0  0
    0.6101    1.4942    1.2473 H   0  0  0  0  0  0  0  0  0  0  0  0
    1.7758    0.1638    0.0045 C   0  0  0  0  0  0  0  0  0  0  0  0
    2.2036    0.2009   -1.0033 H   0  0  0  0  0  0  0  0  0  0  0  0
    1.0441   -1.1985    0.1283 C   0  0  0  0  0  0  0  0  0  0  0  0
    1.6820   -1.8751    0.7136 H   0  0  0  0  0  0  0  0  0  0  0  0
   -0.1413   -1.1212    0.8827 O   0  0  0  0  0  0  0  0  0  0  0  0
    0.8265   -1.6883   -1.1584 O   0  0  0  0  0  0  0  0  0  0  0  0
    2.8710    0.2504    0.8743 O   0  0  0  0  0  0  0  0  0  0  0  0
    1.2545    2.5421   -0.3112 O   0  0  0  0  0  0  0  0  0  0  0  0
   -1.4544    1.9523   -0.6383 O   0  0  0  0  0  0  0  0  0  0  0  0
   -2.9917   -1.8354    0.4851 O   0  0  0  0  0  0  0  0  0  0  0  0
   -1.7915   -1.5650   -1.1789 H   0  0  0  0  0  0  0  0  0  0  0  0
   -2.9486   -0.2708   -0.7776 H   0  0  0  0  0  0  0  0  0  0  0  0
    0.6573   -2.6424   -1.1390 H   0  0  0  0  0  0  0  0  0  0  0  0
    2.5675    0.3652    1.7868 H   0  0  0  0  0  0  0  0  0  0  0  0
    1.3673    2.4983   -1.2713 H   0  0  0  0  0  0  0  0  0  0  0  0
   -1.5152    2.4708    0.1777 H   0  0  0  0  0  0  0  0  0  0  0  0
   -2.3788   -2.4020    0.9763 H   0  0  0  0  0  0  0  0  0  0  0  0
  1  2  1  0  0  0  0
  2  3  1  0  0  0  0
  2  4  1  0  0  0  0
  4  5  1  0  0  0  0
  4  6  1  0  0  0  0
  6  7  1  0  0  0  0
  6  8  1  0  0  0  0
  8  9  1  0  0  0  0
  8 10  1  0  0  0  0
 10 11  1  0  0  0  0
  2 12  1  0  0  0  0
 10 12  1  0  0  0  0
 10 13  1  0  0  0  0
  8 14  1  0  0  0  0
  6 15  1  0  0  0  0
  4 16  1  0  0  0  0
  1 17  1  0  0  0  0
  1 18  1  0  0  0  0
  1 19  1  0  0  0  0
 13 20  1  0  0  0  0
 14 21  1  0  0  0  0
 15 22  1  0  0  0  0
 16 23  1  0  0  0  0
 17 24  1  0  0  0  0
M  END
