 xtb: 6.7.1 (edcfbbe)
          04032521073D

 13 13  0     0  0            999 V2000
   -2.3121    0.0052    0.0001 C   0  0  0  0  0  0  0  0  0  0  0  0
   -1.6124    1.2012   -0.0000 C   0  0  0  0  0  0  0  0  0  0  0  0
   -0.2302    1.1988   -0.0001 C   0  0  0  0  0  0  0  0  0  0  0  0
    0.4573   -0.0085    0.0000 C   0  0  0  0  0  0  0  0  0  0  0  0
   -0.2383   -1.2096    0.0002 C   0  0  0  0  0  0  0  0  0  0  0  0
   -1.6215   -1.1953    0.0003 C   0  0  0  0  0  0  0  0  0  0  0  0
    2.2280    0.0432   -0.0001 S   0  0  0  0  0  0  0  0  0  0  0  0
   -3.3910    0.0095    0.0002 H   0  0  0  0  0  0  0  0  0  0  0  0
   -2.1424    2.1413   -0.0001 H   0  0  0  0  0  0  0  0  0  0  0  0
    0.3237    2.1259   -0.0002 H   0  0  0  0  0  0  0  0  0  0  0  0
    0.2944   -2.1485    0.0003 H   0  0  0  0  0  0  0  0  0  0  0  0
   -2.1604   -2.1305    0.0004 H   0  0  0  0  0  0  0  0  0  0  0  0
    2.4169   -1.2715    0.0001 H   0  0  0  0  0  0  0  0  0  0  0  0
  1  2  4  0  0  0  0
  2  3  4  0  0  0  0
  3  4  4  0  0  0  0
  4  5  4  0  0  0  0
  1  6  4  0  0  0  0
  5  6  4  0  0  0  0
  4  7  1  0  0  0  0
  1  8  1  0  0  0  0
  2  9  1  0  0  0  0
  3 10  1  0  0  0  0
  5 11  1  0  0  0  0
  6 12  1  0  0  0  0
  7 13  1  0  0  0  0
M  END
