14
 xtb: 6.7.1 (edcfbbe)
C            1.94910999592597       -0.13163438612148       -0.00000205774894
C            0.56593852154730        0.51326231011827        0.00000591224721
C           -0.56594547617224       -0.51326356887721        0.00000119901220
C           -1.94911739971585        0.13163228297661       -0.00004223125321
H            2.08672165168897       -0.76349223223229       -0.88476966952057
H            2.74439064636298        0.62093741034752       -0.00000383464865
H            2.08672982749819       -0.76349767956028        0.88476043949783
H            0.46141578137831        1.16280234829303        0.87925071212642
H            0.46141539081510        1.16281174807138       -0.87923180477326
H           -0.46140107292430       -1.16282355276496       -0.87922614462869
H           -0.46144221757667       -1.16279294194292        0.87925602117256
H           -2.08675596776235        0.76351255242600        0.88470510106384
H           -2.74439710584327       -0.62094036851308       -0.00004484393991
H           -2.08671332060148        0.76347257546387       -0.88482468721418
