 xtb: 6.7.1 (edcfbbe)
          04062518003D

 24 24  0     0  0            999 V2000
   -2.5622   -0.8828    0.2612 C   0  0  0  0  0  0  0  0  0  0  0  0
   -1.1310   -0.4495    0.6131 C   0  0  0  0  0  0  0  0  0  0  0  0
   -1.0220   -0.4282    1.7094 H   0  0  0  0  0  0  0  0  0  0  0  0
   -0.8333    0.9594    0.0535 C   0  0  0  0  0  0  0  0  0  0  0  0
   -1.0793    0.9783   -1.0135 H   0  0  0  0  0  0  0  0  0  0  0  0
    0.6560    1.2877    0.2317 C   0  0  0  0  0  0  0  0  0  0  0  0
    0.8656    1.3898    1.3135 H   0  0  0  0  0  0  0  0  0  0  0  0
    1.5225    0.1454   -0.3272 C   0  0  0  0  0  0  0  0  0  0  0  0
    1.3491    0.0708   -1.4067 H   0  0  0  0  0  0  0  0  0  0  0  0
    1.1053   -1.1762    0.3448 C   0  0  0  0  0  0  0  0  0  0  0  0
    1.2560   -1.0965    1.4364 H   0  0  0  0  0  0  0  0  0  0  0  0
   -0.2570   -1.4242    0.0708 O   0  0  0  0  0  0  0  0  0  0  0  0
    1.8514   -2.2597   -0.0569 O   0  0  0  0  0  0  0  0  0  0  0  0
    2.8898    0.4286   -0.1792 O   0  0  0  0  0  0  0  0  0  0  0  0
    0.9450    2.5011   -0.4148 O   0  0  0  0  0  0  0  0  0  0  0  0
   -1.6689    1.9170    0.6439 O   0  0  0  0  0  0  0  0  0  0  0  0
   -2.7407   -1.0603   -1.1180 O   0  0  0  0  0  0  0  0  0  0  0  0
   -3.2501   -0.0914    0.5634 H   0  0  0  0  0  0  0  0  0  0  0  0
   -2.7971   -1.8058    0.8044 H   0  0  0  0  0  0  0  0  0  0  0  0
    1.7180   -2.4315   -1.0021 H   0  0  0  0  0  0  0  0  0  0  0  0
    3.1774    0.2498    0.7279 H   0  0  0  0  0  0  0  0  0  0  0  0
    1.9044    2.5542   -0.5530 H   0  0  0  0  0  0  0  0  0  0  0  0
   -1.3675    2.1161    1.5425 H   0  0  0  0  0  0  0  0  0  0  0  0
   -2.1318   -1.7519   -1.4152 H   0  0  0  0  0  0  0  0  0  0  0  0
  1  2  1  0  0  0  0
  2  3  1  0  0  0  0
  2  4  1  0  0  0  0
  4  5  1  0  0  0  0
  4  6  1  0  0  0  0
  6  7  1  0  0  0  0
  6  8  1  0  0  0  0
  8  9  1  0  0  0  0
  8 10  1  0  0  0  0
 10 11  1  0  0  0  0
  2 12  1  0  0  0  0
 10 12  1  0  0  0  0
 10 13  1  0  0  0  0
  8 14  1  0  0  0  0
  6 15  1  0  0  0  0
  4 16  1  0  0  0  0
  1 17  1  0  0  0  0
  1 18  1  0  0  0  0
  1 19  1  0  0  0  0
 13 20  1  0  0  0  0
 14 21  1  0  0  0  0
 15 22  1  0  0  0  0
 16 23  1  0  0  0  0
 17 24  1  0  0  0  0
M  END
