19
CONF1
C -3.2094944619 0.0051112842 0.8440653054
C -2.4871235591 -0.0067744506 -0.5080460685
C -0.9892383755 -0.0049093648 -0.3461807849
C -0.2772908703 1.1943472657 -0.2393965699
C 1.0980619267 1.2081002450 -0.0325843495
C 1.7872928935 0.0014972366 0.0736815524
C 1.1028042121 -1.2083701245 -0.0289608933
C -0.2740521287 -1.2005924069 -0.2362823361
O 3.1516064286 0.0606368699 0.2760648467
H -2.9380351315 0.8953836392 1.4214761702
H -2.9389727680 -0.8757461815 1.4361546956
H -4.2960499812 0.0046512242 0.7089046830
H -2.7931234126 0.8702024913 -1.0894175917
H -2.7927593000 -0.8939301649 -1.0738590820
H -0.8083889681 2.1392525303 -0.3220962006
H 1.6422379920 2.1443241066 0.0430340098
H 1.6460821895 -2.1464528628 0.0482406752
H -0.8009559302 -2.1480848559 -0.3162280501
H 3.4987477039 -0.8405718572 0.3294971744
19
CONF2
C -3.3340307561 0.7666187884 -0.1115347290
C -2.4798827012 -0.4824154110 0.0821802272
C -0.9838994352 -0.2629759745 0.0375982097
C -0.3938964242 0.9848792472 0.2510070699
C 0.9907998073 1.1484497778 0.2316549359
C 1.8122358060 0.0497774689 -0.0047428732
C 1.2493048721 -1.2069664065 -0.2245371047
C -0.1324898304 -1.3492393914 -0.2030172347
O 3.1885353713 0.1488542461 -0.0387373196
H -4.3937378199 0.4958620641 -0.1404821046
H -3.0895217573 1.2741024721 -1.0509999002
H -3.2016400639 1.4835894133 0.7045435144
H -2.7393841439 -1.2241966741 -0.6822983937
H -2.7395756220 -0.9465946509 1.0436833136
H -1.0127345406 1.8569357398 0.4354933315
H 1.4319207023 2.1279974629 0.3977935277
H 1.8954114247 -2.0581280205 -0.4160949637
H -0.5630747529 -2.3319299443 -0.3793593612
H 3.4407426921 1.0687699930 0.1218681537
