16
CONF1
C 0.7328011877 -1.1978351175 0.2318539296
C -0.7329913785 -1.1979278531 -0.2317662154
N -1.4477350185 0.0000064755 0.1920733942
C -0.7329989629 1.1981009864 -0.2313170870
C 0.7331832586 1.1978151985 0.2314461050
N 1.4477732542 -0.0002418853 -0.1923297532
H 1.2578834212 -2.0715274802 -0.1572242646
H 0.7706331024 -1.2285810347 1.3262665063
H -0.7709330953 -1.2292913181 -1.3260938326
H -1.2581564561 -2.0714174424 0.1579439341
H -1.5129529461 -0.0003138067 1.2067867999
H -0.7718040373 1.2303994359 -1.3255994348
H -1.2577191644 2.0714409669 0.1594342496
H 1.2579577434 2.0710403874 -0.1592027249
H 0.7719980325 1.2299203934 1.3257794380
H 1.5126322934 -0.0002244661 -1.2071108398
16
CONF2
C 0.7357419026 -1.1905213340 -0.2184681176
C -0.7357280772 -1.1971350603 0.2141553913
N -1.3771428927 0.0002557620 -0.3054607136
C -0.7353837348 1.1972465793 0.2147461905
C 0.7356168842 1.1902498295 -0.2190306985
N 1.4405787256 -0.0000210175 0.2298186614
H 0.7831573217 -1.2062442576 -1.3097669661
H 1.2482474090 -2.0707390613 0.1728260317
H -1.2434717419 -2.0717093884 -0.1955498902
H -0.7850738327 -1.2486482247 1.3195660468
H -2.3634535329 0.0004067439 -0.0675298359
H -1.2434742863 2.0721643478 -0.1936375053
H -0.7838449778 1.2475439508 1.3202035533
H 0.7822387833 1.2048731327 -1.3103982142
H 1.2485919754 2.0707697624 0.1709826467
H 1.4725773798 0.0002272951 1.2469472676
16
CONF3
C 0.7276248318 -1.1920390323 -0.2319773722
C -0.7277546605 -1.1919785467 0.2318725283
N -1.3813254426 0.0001550780 -0.2842984875
C -0.7275009935 1.1920589973 0.2320716395
C 0.7277472254 1.1919038328 -0.2321199043
N 1.3812028991 -0.0000668618 0.2844276145
H 0.7414397714 -1.2274010718 -1.3347967431
H 1.2420619361 -2.0716936237 0.1585812935
H -1.2423126494 -2.0714684471 -0.1589081541
H -0.7415656091 -1.2275688141 1.3346739098
H -2.3591964543 0.0002073816 -0.0130053414
H -1.2420342192 2.0717510790 -0.1582646560
H -0.7409667629 1.2272457606 1.3348892686
H 0.7412160078 1.2269322879 -1.3349548615
H 1.2424412546 2.0715845191 0.1580352629
H 2.3592325414 -0.0001625678 0.0137801291
