16
CONF1
C 0.7264635071 -1.2050080392 0.2301131896
C -0.7266505749 -1.2049401930 -0.2299167857
N -1.4729178934 0.0001521510 0.1883446094
C -0.7265372861 1.2051797711 -0.2299091628
C 0.7266432539 1.2050992965 0.2299532269
N 1.4728614158 -0.0000386797 -0.1882772192
H 1.2408338138 -2.0937993996 -0.1540120184
H 0.7585911870 -1.2601598757 1.3271115858
H -0.7587758545 -1.2602101106 -1.3269096870
H -1.2411301160 -2.0936294897 0.1543011009
H -1.4716917393 0.0001446254 1.2078689797
H -0.7588070638 1.2605611311 -1.3268903438
H -1.2408594741 2.0938942992 0.1544658385
H 1.2410759788 2.0937432575 -0.1544348916
H 0.7589220901 1.2604868253 1.3269335918
H 1.4715498848 -0.0001123005 -1.2078017710
16
CONF2
C 0.7314670809 -1.2052512212 -0.2188581247
C -0.7313548472 -1.1993930824 0.1976204044
N -1.3998796448 0.0000289960 -0.3386312751
C -0.7311713406 1.1993288322 0.1976556717
C 0.7316118273 1.2049922696 -0.2189351455
N 1.4678279870 -0.0001591052 0.2157958135
H 0.8010969437 -1.2724360030 -1.3120781395
H 1.2257214816 -2.0908527547 0.1941658076
H -1.2313081365 -2.0952231044 -0.1879898384
H -0.7835726388 -1.2383890446 1.3021064648
H -2.3545184734 0.0000907031 0.0075841069
H -1.2310450111 2.0952532513 -0.1878336526
H -0.7832838541 1.2382441781 1.3021522944
H 0.8011538112 1.2720305152 -1.3121723614
H 1.2260242309 2.0905777260 0.1939344361
H 1.4404078276 -0.0001227423 1.2348871759
16
CONF3
C 0.7263816775 -1.2009670622 -0.2180207934
C -0.7265312093 -1.2008666510 0.2179851546
N -1.4053729645 0.0000834582 -0.3029441043
C -0.7263405945 1.2009085491 0.2180236497
C 0.7265662428 1.2007935696 -0.2179992921
N 1.4053986090 -0.0001433363 0.3029641852
H 0.7694361919 -1.2528342130 -1.3207001866
H 1.2233869347 -2.0940850732 0.1750777533
H -1.2236728116 -2.0938893142 -0.1751587392
H -0.7695917038 -1.2527833491 1.3206612125
H -2.3523509779 0.0001518973 0.0639164390
H -1.2233492432 2.0940240599 -0.1750768497
H -0.7693774245 1.2527871807 1.3207026716
H 0.7696130604 1.2526648542 -1.3206790410
H 1.2237173964 2.0938293588 0.1751011258
H 2.3523960370 -0.0002140888 -0.0638469600
