17
CONF3
C 2.8983551442 -0.0745524156 0.0154820530
C 1.4005146511 0.0038418531 -0.0046514986
C 0.7131232132 1.2160256555 -0.0057152700
C -0.6764785371 1.2196331141 -0.0047376284
C -1.3687852940 0.0091259148 -0.0016660801
N -0.7180467559 -1.1704355810 -0.0057768259
C 0.6197673769 -1.1533708647 -0.0085898213
C -2.8662914711 -0.0376846519 0.0111403590
H 3.2625718685 -0.3326184477 1.0166003633
H 3.2630562521 -0.8449243878 -0.6705229390
H 3.3448484760 0.8824191349 -0.2657874292
H 1.2630722996 2.1532476402 -0.0102002093
H -1.2251338500 2.1560558285 -0.0087600399
H 1.1098022464 -2.1268516056 -0.0163460716
H -3.2278104763 -0.4914248863 0.9407541287
H -3.2943613875 0.9635543655 -0.0723734431
H -3.2421807356 -0.6506584872 -0.8143292395
17
CONF1
C 2.8993201748 -0.0611343100 -0.0009954756
C 1.4011704641 -0.0041325797 0.0004080748
C 0.7088439858 1.2111325829 0.0002834087
C -0.6754021762 1.2108629358 0.0002433209
C -1.3675153659 -0.0057126815 0.0002469573
N -0.7172907468 -1.1794589457 0.0006833286
C 0.6263447402 -1.1592195413 0.0008455004
C -2.8667669721 -0.0272014780 -0.0006921394
H 3.3087760118 0.4269284623 -0.8919502297
H 3.3119315469 0.4587985185 0.8700846801
H 3.2535184970 -1.0948494715 0.0165324206
H 1.2581197046 2.1490832892 0.0003602154
H -1.2293643639 2.1448705062 0.0003581962
H 1.1163821557 -2.1322148314 0.0015526744
H -3.2415817308 -1.0520049531 0.0074552848
H -3.2626450120 0.4989641691 0.8746784678
H -3.2609738844 0.4838195426 -0.8858325382
17
CONF2
C 2.8997124547 -0.0717018306 0.0091139646
C 1.4011742481 0.0007399601 -0.0045085483
C 0.7088520265 1.2128554565 -0.0029398123
C -0.6779649246 1.2113526063 -0.0007661924
C -1.3680314439 -0.0033494821 -0.0000132794
N -0.7152925858 -1.1788395956 -0.0046600899
C 0.6257397173 -1.1569669960 -0.0076309070
C -2.8673881820 -0.0289018533 0.0048980186
H 3.2661741602 -0.4151173344 0.9831116245
H 3.2678185822 -0.7775117500 -0.7418678458
H 3.3410817914 0.9079439636 -0.1898109384
H 1.2565592455 2.1513904838 -0.0053613194
H -1.2318034479 2.1454012819 -0.0015590560
H 1.1173297138 -2.1295632208 -0.0146372114
H -3.2395697971 -1.0545472602 -0.0117455540
H -3.2606242255 0.4720993428 0.8961824994
H -3.2676834438 0.5041998418 -0.8641508687
