24
CONF2
C 2.3459311844 -0.7138888368 0.1282381340
C 0.8634294419 -0.5301267278 0.4456933180
H 0.6923881339 -0.8860859532 1.4735700600
C -0.0120487660 -1.3884645633 -0.4761952850
C -1.4967056574 -1.2639202030 -0.1293077200
C -1.9470947702 0.1979620192 -0.1499330945
C -1.0713392677 1.0484784934 0.7738633085
C 0.4235473283 0.9514015609 0.4256873160
H 0.9848872276 1.4663801332 1.2186876773
C 0.7454410345 1.6651933262 -0.8906674830
H 2.5608610990 -0.4873292360 -0.9220015089
H 2.9712704800 -0.0611942151 0.7485162002
H 2.6556263296 -1.7489261253 0.3109962252
H 0.1471560002 -1.0845578270 -1.5201640018
H 0.3070175549 -2.4361711432 -0.4048924795
H -2.1011212497 -1.8603700398 -0.8232001327
H -1.6656339636 -1.6754748618 0.8760905764
H -1.8927757687 0.5825240500 -1.1771038401
H -2.9966847630 0.2759742348 0.1579427273
H -1.3902777626 2.0978855490 0.7412681239
H -1.2156969402 0.7029325122 1.8072308358
H 0.3560242161 2.6895633337 -0.8691378787
H 0.3038202398 1.1630876231 -1.7574441066
H 1.8253310986 1.7272728371 -1.0586491312
24
CONF1
C 2.3609822665 -0.6541000458 0.1742635795
C 0.8698385482 -0.5037315950 0.4656641739
H 0.6911145952 -0.8514152295 1.4949940218
C 0.0307854924 -1.3948452463 -0.4595935367
C -1.4624365436 -1.3019659227 -0.1406926330
C -1.9473220956 0.1480454223 -0.1894180561
C -1.1099725427 1.0297754249 0.7401234319
C 0.3933250722 0.9662473423 0.4204248613
H 0.9263562346 1.5044134046 1.2174639238
C 0.7216232209 1.6724993380 -0.8983160061
H 2.9602274382 0.0206169377 0.7966485654
H 2.6928947255 -1.6788980180 0.3744131043
H 2.5880585011 -0.4345309670 -0.8748488565
H 0.2006419126 -1.1005201746 -1.5045503942
H 0.3736080060 -2.4334613621 -0.3688647733
H -2.0393562238 -1.9226131768 -0.8367771707
H -1.6398637772 -1.7036227476 0.8672477905
H -1.8812897029 0.5206656756 -1.2202598433
H -3.0044487618 0.2047750437 0.0965554898
H -1.4538239121 2.0705652158 0.6912493404
H -1.2643679003 0.6909682443 1.7742545524
H 1.8021680768 1.7644747149 -1.0445141273
H 0.3020805330 2.6847084048 -0.8985473674
H 0.3133401133 1.1464217019 -1.7666976115
