 xtb: 6.7.1 (edcfbbe)
          04032521303D

 19 19  0     0  0            999 V2000
   -1.9177   -0.0260    0.2097 C   0  0  0  0  0  0  0  0  0  0  0  0
   -0.9446   -1.1859    0.4546 C   0  0  0  0  0  0  0  0  0  0  0  0
    0.1863   -1.1595   -0.5686 C   0  0  0  0  0  0  0  0  0  0  0  0
    1.0601    0.1007   -0.4142 C   0  0  0  0  0  0  0  0  0  0  0  0
    0.2476    1.2570    0.1884 C   0  0  0  0  0  0  0  0  0  0  0  0
   -1.1884    1.2152   -0.3228 C   0  0  0  0  0  0  0  0  0  0  0  0
    2.2352   -0.1566    0.3356 O   0  0  0  0  0  0  0  0  0  0  0  0
   -2.4272    0.2148    1.1441 H   0  0  0  0  0  0  0  0  0  0  0  0
   -2.6798   -0.3291   -0.5094 H   0  0  0  0  0  0  0  0  0  0  0  0
   -0.5266   -1.1153    1.4603 H   0  0  0  0  0  0  0  0  0  0  0  0
   -1.4771   -2.1357    0.3920 H   0  0  0  0  0  0  0  0  0  0  0  0
    0.8269   -2.0366   -0.4598 H   0  0  0  0  0  0  0  0  0  0  0  0
   -0.2397   -1.1843   -1.5719 H   0  0  0  0  0  0  0  0  0  0  0  0
    1.4426    0.3943   -1.3983 H   0  0  0  0  0  0  0  0  0  0  0  0
    0.2480    1.1713    1.2772 H   0  0  0  0  0  0  0  0  0  0  0  0
    0.7220    2.2057   -0.0658 H   0  0  0  0  0  0  0  0  0  0  0  0
   -1.7182    2.1176   -0.0162 H   0  0  0  0  0  0  0  0  0  0  0  0
   -1.1682    1.2007   -1.4139 H   0  0  0  0  0  0  0  0  0  0  0  0
    1.9812   -0.4191    1.2314 H   0  0  0  0  0  0  0  0  0  0  0  0
  1  2  1  0  0  0  0
  2  3  1  0  0  0  0
  3  4  1  0  0  0  0
  4  5  1  0  0  0  0
  1  6  1  0  0  0  0
  5  6  1  0  0  0  0
  4  7  1  0  0  0  0
  1  8  1  0  0  0  0
  1  9  1  0  0  0  0
  2 10  1  0  0  0  0
  2 11  1  0  0  0  0
  3 12  1  0  0  0  0
  3 13  1  0  0  0  0
  4 14  1  0  0  0  0
  5 15  1  0  0  0  0
  5 16  1  0  0  0  0
  6 17  1  0  0  0  0
  6 18  1  0  0  0  0
  7 19  1  0  0  0  0
M  END
