 xtb: 6.7.1 (edcfbbe)
          04032521003D

 19 18  0     0  0            999 V2000
   -1.6476   -0.7833    0.9396 C   0  0  0  0  0  0  0  0  0  0  0  0
   -0.8893   -0.0189   -0.1092 C   0  0  0  0  0  0  0  0  0  0  0  0
   -1.4773    0.5207   -1.0276 O   0  0  0  0  0  0  0  0  0  0  0  0
    0.6289    0.0526    0.0190 C   0  0  0  0  0  0  0  0  0  0  0  0
    0.9924    0.7248    1.3492 C   0  0  0  0  0  0  0  0  0  0  0  0
    1.1970    0.8768   -1.1388 C   0  0  0  0  0  0  0  0  0  0  0  0
    1.2047   -1.3684   -0.0366 C   0  0  0  0  0  0  0  0  0  0  0  0
   -2.2196   -1.5668    0.4465 H   0  0  0  0  0  0  0  0  0  0  0  0
   -1.0095   -1.2168    1.6984 H   0  0  0  0  0  0  0  0  0  0  0  0
   -2.3661   -0.1095    1.4023 H   0  0  0  0  0  0  0  0  0  0  0  0
    0.6581    0.1396    2.2001 H   0  0  0  0  0  0  0  0  0  0  0  0
    2.0720    0.8348    1.4121 H   0  0  0  0  0  0  0  0  0  0  0  0
    0.5421    1.7132    1.4083 H   0  0  0  0  0  0  0  0  0  0  0  0
    2.2793    0.9350   -1.0658 H   0  0  0  0  0  0  0  0  0  0  0  0
    0.7870    1.8841   -1.1232 H   0  0  0  0  0  0  0  0  0  0  0  0
    0.9309    0.4246   -2.0917 H   0  0  0  0  0  0  0  0  0  0  0  0
    2.2901   -1.3172   -0.0070 H   0  0  0  0  0  0  0  0  0  0  0  0
    0.9087   -1.8598   -0.9608 H   0  0  0  0  0  0  0  0  0  0  0  0
    0.8675   -1.9716    0.8006 H   0  0  0  0  0  0  0  0  0  0  0  0
  1  2  1  0  0  0  0
  2  3  2  0  0  0  0
  2  4  1  0  0  0  0
  4  5  1  0  0  0  0
  4  6  1  0  0  0  0
  4  7  1  0  0  0  0
  1  8  1  0  0  0  0
  1  9  1  0  0  0  0
  1 10  1  0  0  0  0
  5 11  1  0  0  0  0
  5 12  1  0  0  0  0
  5 13  1  0  0  0  0
  6 14  1  0  0  0  0
  6 15  1  0  0  0  0
  6 16  1  0  0  0  0
  7 17  1  0  0  0  0
  7 18  1  0  0  0  0
  7 19  1  0  0  0  0
M  END
