26
 xtb: 6.7.1 (edcfbbe)
C           -2.13017539898029       -0.88782654355088        0.88091488938214
C           -1.59910623132991        0.39010674059939        0.22055497171900
C           -1.88047043482015        0.37043361571610       -1.28308227279584
C           -0.14994874012678        0.75490456153834        0.61796540760550
C            1.09484079323220        0.03263998648991        0.03891533656918
C            1.40021600911659        0.47639376302176       -1.39980373884200
C            2.28799737673193        0.44998077588933        0.91488072719815
C            0.97749887437808       -1.49449752973237        0.08058119877111
H           -1.91694022692095       -0.89750908747847        1.95554529421029
H           -3.21747468772221       -0.94983137956254        0.75642064503897
H           -1.70060321540327       -1.79259381943616        0.44302100315769
H           -2.19775179561415        1.21283687813519        0.63833313336360
H           -1.42119970949731       -0.49640233851194       -1.76914116187044
H           -2.96020226864476        0.30953272183648       -1.46182305454646
H           -1.50920286695346        1.27515082068956       -1.77603411368084
H           -0.01054866963155        1.82397395919212        0.40356058033037
H           -0.09973453194808        0.66046652302662        1.71194771377028
H            0.63969355355126        0.14193415409643       -2.10853510938980
H            2.36086924393635        0.05913375215213       -1.72453341626578
H            1.46959610598569        1.56844539646047       -1.46542656686267
H            3.22014304605235        0.02123409510876        0.52926822199381
H            2.15770012820206        0.10711003089593        1.94771186538642
H            2.39993416969369        1.54065635265507        0.93237457295248
H            0.20778904198927       -1.85885549727265       -0.60577165769114
H            0.73563606482440       -1.84878066034639        1.08889820606488
H            1.92964932579009       -1.95015309418390       -0.21711572516999
