12
 xtb: 6.7.1 (edcfbbe)
C            1.53543815384375        1.19194922993497        0.00005916232329
C            0.15172494728298        1.24268062999364       -0.00015676108771
C           -0.54602555511469        0.02992968986732       -0.00042513762995
C            0.17129811209358       -1.17424049487180       -0.00027188880012
N            1.50298374066852       -1.21934518051978       -0.00011727958259
C            2.16211348304330       -0.04938747548003        0.00000307139257
C           -1.96450293460683        0.00365469801395       -0.00051734293860
N           -3.12456526548787       -0.02782891998093        0.00083883305715
H            2.12484491996576        2.10145509189339        0.00007968830886
H           -0.38454273854533        2.18472152536092       -0.00013520710911
H           -0.36206789636847       -2.12106882158311       -0.00017266799097
H            3.24728130816088       -0.11035980869132       -0.00027323918493
