 xtb: 6.7.1 (edcfbbe)
          04062518003D

 24 24  0     0  0            999 V2000
   -2.4185   -0.6792    0.0147 C   0  0  0  0  0  0  0  0  0  0  0  0
   -0.9759   -0.2816    0.3482 C   0  0  0  0  0  0  0  0  0  0  0  0
   -0.9121    0.0103    1.4070 H   0  0  0  0  0  0  0  0  0  0  0  0
   -0.5183    0.9015   -0.5136 C   0  0  0  0  0  0  0  0  0  0  0  0
   -0.5045    0.5707   -1.5636 H   0  0  0  0  0  0  0  0  0  0  0  0
    0.9130    1.3263   -0.1109 C   0  0  0  0  0  0  0  0  0  0  0  0
    0.8276    2.1330    0.6263 H   0  0  0  0  0  0  0  0  0  0  0  0
    1.6900    0.1527    0.5289 C   0  0  0  0  0  0  0  0  0  0  0  0
    2.7514    0.2694    0.2699 H   0  0  0  0  0  0  0  0  0  0  0  0
    1.2125   -1.1620   -0.0993 C   0  0  0  0  0  0  0  0  0  0  0  0
    1.7479   -2.0062    0.3610 H   0  0  0  0  0  0  0  0  0  0  0  0
   -0.1447   -1.4181    0.1326 O   0  0  0  0  0  0  0  0  0  0  0  0
    1.4936   -1.0776   -1.4673 O   0  0  0  0  0  0  0  0  0  0  0  0
    1.5140    0.0589    1.9176 O   0  0  0  0  0  0  0  0  0  0  0  0
    1.6168    1.8726   -1.1976 O   0  0  0  0  0  0  0  0  0  0  0  0
   -1.4341    1.9548   -0.3454 O   0  0  0  0  0  0  0  0  0  0  0  0
   -2.9357   -1.6760    0.8562 O   0  0  0  0  0  0  0  0  0  0  0  0
   -2.4524   -1.0985   -0.9926 H   0  0  0  0  0  0  0  0  0  0  0  0
   -3.0324    0.2289    0.0521 H   0  0  0  0  0  0  0  0  0  0  0  0
    1.2597   -1.9124   -1.9010 H   0  0  0  0  0  0  0  0  0  0  0  0
    1.9980    0.7732    2.3580 H   0  0  0  0  0  0  0  0  0  0  0  0
    1.7880    1.1683   -1.8423 H   0  0  0  0  0  0  0  0  0  0  0  0
   -1.1625    2.6996   -0.9023 H   0  0  0  0  0  0  0  0  0  0  0  0
   -2.8939   -1.3759    1.7751 H   0  0  0  0  0  0  0  0  0  0  0  0
  1  2  1  0  0  0  0
  2  3  1  0  0  0  0
  2  4  1  0  0  0  0
  4  5  1  0  0  0  0
  4  6  1  0  0  0  0
  6  7  1  0  0  0  0
  6  8  1  0  0  0  0
  8  9  1  0  0  0  0
  8 10  1  0  0  0  0
 10 11  1  0  0  0  0
  2 12  1  0  0  0  0
 10 12  1  0  0  0  0
 10 13  1  0  0  0  0
  8 14  1  0  0  0  0
  6 15  1  0  0  0  0
  4 16  1  0  0  0  0
  1 17  1  0  0  0  0
  1 18  1  0  0  0  0
  1 19  1  0  0  0  0
 13 20  1  0  0  0  0
 14 21  1  0  0  0  0
 15 22  1  0  0  0  0
 16 23  1  0  0  0  0
 17 24  1  0  0  0  0
M  END
