 xtb: 6.7.1 (edcfbbe)
          04042518373D

 13 13  0     0  0            999 V2000
   -1.1304   -1.3333   -0.4972 C   0  0  0  0  0  0  0  0  0  0  0  0
   -0.6813   -0.1985    0.4266 C   0  0  0  0  0  0  0  0  0  0  0  0
   -1.5501    1.0373    0.2817 C   0  0  0  0  0  0  0  0  0  0  0  0
    0.7118    0.0964    0.0540 N   0  0  0  0  0  0  0  0  0  0  0  0
    0.9334    0.9726   -0.7528 O   0  0  0  0  0  0  0  0  0  0  0  0
    1.5782   -0.5957    0.5541 O   0  0  0  0  0  0  0  0  0  0  0  0
   -1.1238   -1.0002   -1.5324 H   0  0  0  0  0  0  0  0  0  0  0  0
   -0.4710   -2.1920   -0.3950 H   0  0  0  0  0  0  0  0  0  0  0  0
   -2.1390   -1.6320   -0.2307 H   0  0  0  0  0  0  0  0  0  0  0  0
   -0.6474   -0.5575    1.4588 H   0  0  0  0  0  0  0  0  0  0  0  0
   -1.1953    1.8369    0.9268 H   0  0  0  0  0  0  0  0  0  0  0  0
   -2.5710    0.7932    0.5560 H   0  0  0  0  0  0  0  0  0  0  0  0
   -1.5352    1.3921   -0.7454 H   0  0  0  0  0  0  0  0  0  0  0  0
  1  2  1  0  0  0  0
  2  3  1  0  0  0  0
  2  4  1  0  0  0  0
  4  5  4  0  0  0  0
  4  6  4  0  0  0  0
  5  6  1  0  0  0  0
  1  7  1  0  0  0  0
  1  8  1  0  0  0  0
  1  9  1  0  0  0  0
  2 10  1  0  0  0  0
  3 11  1  0  0  0  0
  3 12  1  0  0  0  0
  3 13  1  0  0  0  0
M  END
