 xtb: 6.7.1 (edcfbbe)
          04032521443D

 18 18  0     0  0            999 V2000
    1.7351    0.1244    0.8868 C   0  0  0  0  0  0  0  0  0  0  0  0
    1.1063   -0.0415   -0.4128 N   0  0  0  0  0  0  0  0  0  0  0  0
    0.3495   -1.2805   -0.5464 C   0  0  0  0  0  0  0  0  0  0  0  0
   -1.1265   -1.1163   -0.1124 C   0  0  0  0  0  0  0  0  0  0  0  0
   -1.2809   -0.0050    0.7524 O   0  0  0  0  0  0  0  0  0  0  0  0
   -0.9767    1.2196    0.1005 C   0  0  0  0  0  0  0  0  0  0  0  0
    0.2741    1.0827   -0.7976 C   0  0  0  0  0  0  0  0  0  0  0  0
    1.0277    0.1253    1.7249 H   0  0  0  0  0  0  0  0  0  0  0  0
    2.2810    1.0664    0.8847 H   0  0  0  0  0  0  0  0  0  0  0  0
    2.4468   -0.6877    1.0292 H   0  0  0  0  0  0  0  0  0  0  0  0
    0.3860   -1.5837   -1.5977 H   0  0  0  0  0  0  0  0  0  0  0  0
    0.8409   -2.0475    0.0510 H   0  0  0  0  0  0  0  0  0  0  0  0
   -1.7771   -0.9837   -0.9885 H   0  0  0  0  0  0  0  0  0  0  0  0
   -1.4735   -1.9780    0.4583 H   0  0  0  0  0  0  0  0  0  0  0  0
   -1.8434    1.5419   -0.4957 H   0  0  0  0  0  0  0  0  0  0  0  0
   -0.8164    1.9366    0.9073 H   0  0  0  0  0  0  0  0  0  0  0  0
   -0.0262    0.9149   -1.8353 H   0  0  0  0  0  0  0  0  0  0  0  0
    0.8683    1.9956   -0.7537 H   0  0  0  0  0  0  0  0  0  0  0  0
  1  2  1  0  0  0  0
  2  3  1  0  0  0  0
  3  4  1  0  0  0  0
  4  5  1  0  0  0  0
  5  6  1  0  0  0  0
  2  7  1  0  0  0  0
  6  7  1  0  0  0  0
  1  8  1  0  0  0  0
  1  9  1  0  0  0  0
  1 10  1  0  0  0  0
  3 11  1  0  0  0  0
  3 12  1  0  0  0  0
  4 13  1  0  0  0  0
  4 14  1  0  0  0  0
  6 15  1  0  0  0  0
  6 16  1  0  0  0  0
  7 17  1  0  0  0  0
  7 18  1  0  0  0  0
M  END
