 xtb: 6.7.1 (edcfbbe)
          04032521503D

 21 21  0     0  0            999 V2000
    1.9527    0.0001   -0.7616 C   0  0  0  0  0  0  0  0  0  0  0  0
    1.1124   -0.0000    0.5144 C   0  0  0  0  0  0  0  0  0  0  0  0
    0.2383    1.2538    0.6292 C   0  0  0  0  0  0  0  0  0  0  0  0
   -0.9172    1.2521   -0.3683 C   0  0  0  0  0  0  0  0  0  0  0  0
   -1.7711    0.0001   -0.1949 C   0  0  0  0  0  0  0  0  0  0  0  0
   -0.9173   -1.2520   -0.3682 C   0  0  0  0  0  0  0  0  0  0  0  0
    0.2383   -1.2539    0.6291 C   0  0  0  0  0  0  0  0  0  0  0  0
    2.5887    0.8820   -0.7916 H   0  0  0  0  0  0  0  0  0  0  0  0
    2.5889   -0.8819   -0.7914 H   0  0  0  0  0  0  0  0  0  0  0  0
    1.3298   -0.0002   -1.6508 H   0  0  0  0  0  0  0  0  0  0  0  0
    1.8099   -0.0000    1.3616 H   0  0  0  0  0  0  0  0  0  0  0  0
   -0.1735    1.3007    1.6407 H   0  0  0  0  0  0  0  0  0  0  0  0
    0.8541    2.1434    0.4804 H   0  0  0  0  0  0  0  0  0  0  0  0
   -1.5295    2.1434   -0.2149 H   0  0  0  0  0  0  0  0  0  0  0  0
   -0.5295    1.2906   -1.3875 H   0  0  0  0  0  0  0  0  0  0  0  0
   -2.2129    0.0002    0.8047 H   0  0  0  0  0  0  0  0  0  0  0  0
   -2.5862    0.0001   -0.9216 H   0  0  0  0  0  0  0  0  0  0  0  0
   -1.5298   -2.1432   -0.2146 H   0  0  0  0  0  0  0  0  0  0  0  0
   -0.5298   -1.2908   -1.3874 H   0  0  0  0  0  0  0  0  0  0  0  0
   -0.1732   -1.3012    1.6406 H   0  0  0  0  0  0  0  0  0  0  0  0
    0.8541   -2.1435    0.4798 H   0  0  0  0  0  0  0  0  0  0  0  0
  1  2  1  0  0  0  0
  2  3  1  0  0  0  0
  3  4  1  0  0  0  0
  4  5  1  0  0  0  0
  5  6  1  0  0  0  0
  2  7  1  0  0  0  0
  6  7  1  0  0  0  0
  1  8  1  0  0  0  0
  1  9  1  0  0  0  0
  1 10  1  0  0  0  0
  2 11  1  0  0  0  0
  3 12  1  0  0  0  0
  3 13  1  0  0  0  0
  4 14  1  0  0  0  0
  4 15  1  0  0  0  0
  5 16  1  0  0  0  0
  5 17  1  0  0  0  0
  6 18  1  0  0  0  0
  6 19  1  0  0  0  0
  7 20  1  0  0  0  0
  7 21  1  0  0  0  0
M  END
