 xtb: 6.7.1 (edcfbbe)
          04062518003D

 24 24  0     0  0            999 V2000
   -2.5317   -0.7569   -0.3678 C   0  0  0  0  0  0  0  0  0  0  0  0
   -1.1538   -0.3557    0.1601 C   0  0  0  0  0  0  0  0  0  0  0  0
   -1.2007   -0.3198    1.2615 H   0  0  0  0  0  0  0  0  0  0  0  0
   -0.7028    1.0101   -0.3811 C   0  0  0  0  0  0  0  0  0  0  0  0
   -0.6618    0.9627   -1.4748 H   0  0  0  0  0  0  0  0  0  0  0  0
    0.7002    1.3218    0.1577 C   0  0  0  0  0  0  0  0  0  0  0  0
    0.6445    1.4430    1.2542 H   0  0  0  0  0  0  0  0  0  0  0  0
    1.6762    0.1747   -0.1371 C   0  0  0  0  0  0  0  0  0  0  0  0
    1.8690    0.1348   -1.2184 H   0  0  0  0  0  0  0  0  0  0  0  0
    1.0703   -1.1742    0.2809 C   0  0  0  0  0  0  0  0  0  0  0  0
    1.0366   -1.2041    1.3909 H   0  0  0  0  0  0  0  0  0  0  0  0
   -0.2293   -1.3504   -0.2345 O   0  0  0  0  0  0  0  0  0  0  0  0
    1.8600   -2.1819   -0.2264 O   0  0  0  0  0  0  0  0  0  0  0  0
    2.8704    0.3385    0.5798 O   0  0  0  0  0  0  0  0  0  0  0  0
    1.2287    2.4912   -0.4209 O   0  0  0  0  0  0  0  0  0  0  0  0
   -1.5991    2.0467   -0.0770 O   0  0  0  0  0  0  0  0  0  0  0  0
   -3.1516   -1.5937    0.5813 O   0  0  0  0  0  0  0  0  0  0  0  0
   -2.3862   -1.2746   -1.3217 H   0  0  0  0  0  0  0  0  0  0  0  0
   -3.1227    0.1537   -0.5269 H   0  0  0  0  0  0  0  0  0  0  0  0
    1.4240   -3.0375   -0.0839 H   0  0  0  0  0  0  0  0  0  0  0  0
    3.2791    1.1736    0.3036 H   0  0  0  0  0  0  0  0  0  0  0  0
    0.5274    3.1598   -0.4665 H   0  0  0  0  0  0  0  0  0  0  0  0
   -1.7471    2.0845    0.8802 H   0  0  0  0  0  0  0  0  0  0  0  0
   -3.9819   -1.9307    0.2163 H   0  0  0  0  0  0  0  0  0  0  0  0
  1  2  1  0  0  0  0
  2  3  1  0  0  0  0
  2  4  1  0  0  0  0
  4  5  1  0  0  0  0
  4  6  1  0  0  0  0
  6  7  1  0  0  0  0
  6  8  1  0  0  0  0
  8  9  1  0  0  0  0
  8 10  1  0  0  0  0
 10 11  1  0  0  0  0
  2 12  1  0  0  0  0
 10 12  1  0  0  0  0
 10 13  1  0  0  0  0
  8 14  1  0  0  0  0
  6 15  1  0  0  0  0
  4 16  1  0  0  0  0
  1 17  1  0  0  0  0
  1 18  1  0  0  0  0
  1 19  1  0  0  0  0
 13 20  1  0  0  0  0
 14 21  1  0  0  0  0
 15 22  1  0  0  0  0
 16 23  1  0  0  0  0
 17 24  1  0  0  0  0
M  END
