 xtb: 6.7.1 (edcfbbe)
          04052509003D

 21 21  0     0  0            999 V2000
   -3.1604    0.0022    0.8405 C   0  0  0  0  0  0  0  0  0  0  0  0
   -2.4545   -0.0012   -0.5173 C   0  0  0  0  0  0  0  0  0  0  0  0
   -0.9629   -0.0009   -0.3374 C   0  0  0  0  0  0  0  0  0  0  0  0
   -0.2586   -1.1927   -0.2275 C   0  0  0  0  0  0  0  0  0  0  0  0
    1.1087   -1.1924   -0.0213 C   0  0  0  0  0  0  0  0  0  0  0  0
    1.8136    0.0001    0.0841 C   0  0  0  0  0  0  0  0  0  0  0  0
    1.1081    1.1921   -0.0233 C   0  0  0  0  0  0  0  0  0  0  0  0
   -0.2591    1.1915   -0.2295 C   0  0  0  0  0  0  0  0  0  0  0  0
    3.2992    0.0012    0.2818 C   0  0  0  0  0  0  0  0  0  0  0  0
   -2.8788    0.8850    1.4099 H   0  0  0  0  0  0  0  0  0  0  0  0
   -2.8790   -0.8780    1.4142 H   0  0  0  0  0  0  0  0  0  0  0  0
   -4.2394    0.0020    0.7080 H   0  0  0  0  0  0  0  0  0  0  0  0
   -2.7580    0.8823   -1.0823 H   0  0  0  0  0  0  0  0  0  0  0  0
   -2.7581   -0.8874   -1.0780 H   0  0  0  0  0  0  0  0  0  0  0  0
   -0.7873   -2.1323   -0.3064 H   0  0  0  0  0  0  0  0  0  0  0  0
    1.6372   -2.1317    0.0594 H   0  0  0  0  0  0  0  0  0  0  0  0
    1.6364    2.1317    0.0558 H   0  0  0  0  0  0  0  0  0  0  0  0
   -0.7882    2.1307   -0.3100 H   0  0  0  0  0  0  0  0  0  0  0  0
    3.6193   -0.8910    0.8142 H   0  0  0  0  0  0  0  0  0  0  0  0
    3.8017    0.0163   -0.6856 H   0  0  0  0  0  0  0  0  0  0  0  0
    3.6144    0.8801    0.8387 H   0  0  0  0  0  0  0  0  0  0  0  0
  1  2  1  0  0  0  0
  2  3  1  0  0  0  0
  3  4  4  0  0  0  0
  4  5  4  0  0  0  0
  5  6  4  0  0  0  0
  6  7  4  0  0  0  0
  3  8  4  0  0  0  0
  7  8  4  0  0  0  0
  6  9  1  0  0  0  0
  1 10  1  0  0  0  0
  1 11  1  0  0  0  0
  1 12  1  0  0  0  0
  2 13  1  0  0  0  0
  2 14  1  0  0  0  0
  4 15  1  0  0  0  0
  5 16  1  0  0  0  0
  7 17  1  0  0  0  0
  8 18  1  0  0  0  0
  9 19  1  0  0  0  0
  9 20  1  0  0  0  0
  9 21  1  0  0  0  0
M  END
