 xtb: 6.7.1 (edcfbbe)
          04042520113D

 15 15  0     0  0            999 V2000
   -1.0119   -1.8042   -0.0000 C   0  0  0  0  0  0  0  0  0  0  0  0
    0.3584   -1.6172   -0.0000 C   0  0  0  0  0  0  0  0  0  0  0  0
    0.8749   -0.3207   -0.0000 C   0  0  0  0  0  0  0  0  0  0  0  0
    0.0117    0.7776   -0.0000 C   0  0  0  0  0  0  0  0  0  0  0  0
   -1.3613    0.5839   -0.0000 C   0  0  0  0  0  0  0  0  0  0  0  0
   -1.8682   -0.7184   -0.0000 C   0  0  0  0  0  0  0  0  0  0  0  0
   -2.2449    1.6067   -0.0000 O   0  0  0  0  0  0  0  0  0  0  0  0
    2.3156   -0.1028    0.0000 C   0  0  0  0  0  0  0  0  0  0  0  0
    2.8673    0.9800   -0.0001 O   0  0  0  0  0  0  0  0  0  0  0  0
   -1.4209   -2.8020   -0.0001 H   0  0  0  0  0  0  0  0  0  0  0  0
    1.0299   -2.4611   -0.0000 H   0  0  0  0  0  0  0  0  0  0  0  0
    0.4440    1.7680    0.0000 H   0  0  0  0  0  0  0  0  0  0  0  0
   -2.9384   -0.8499   -0.0001 H   0  0  0  0  0  0  0  0  0  0  0  0
   -1.7900    2.4630    0.0000 H   0  0  0  0  0  0  0  0  0  0  0  0
    2.9180   -1.0295    0.0000 H   0  0  0  0  0  0  0  0  0  0  0  0
  1  2  4  0  0  0  0
  2  3  4  0  0  0  0
  3  4  4  0  0  0  0
  4  5  4  0  0  0  0
  1  6  4  0  0  0  0
  5  6  4  0  0  0  0
  5  7  1  0  0  0  0
  3  8  1  0  0  0  0
  8  9  2  0  0  0  0
  1 10  1  0  0  0  0
  2 11  1  0  0  0  0
  4 12  1  0  0  0  0
  6 13  1  0  0  0  0
  7 14  1  0  0  0  0
  8 15  1  0  0  0  0
M  END
