 xtb: 6.7.1 (edcfbbe)
          04062518003D

 24 24  0     0  0            999 V2000
   -2.0153   -1.1938   -0.3570 C   0  0  0  0  0  0  0  0  0  0  0  0
   -1.2866   -0.3806    0.7242 C   0  0  0  0  0  0  0  0  0  0  0  0
   -1.9548   -0.2910    1.5871 H   0  0  0  0  0  0  0  0  0  0  0  0
   -0.9591    1.0484    0.2492 C   0  0  0  0  0  0  0  0  0  0  0  0
   -1.3121    1.1811   -0.7836 H   0  0  0  0  0  0  0  0  0  0  0  0
    0.5565    1.2729    0.2374 C   0  0  0  0  0  0  0  0  0  0  0  0
    0.9190    1.3529    1.2755 H   0  0  0  0  0  0  0  0  0  0  0  0
    1.2235    0.0643   -0.4230 C   0  0  0  0  0  0  0  0  0  0  0  0
    0.7444   -0.1282   -1.3913 H   0  0  0  0  0  0  0  0  0  0  0  0
    1.0032   -1.1564    0.4829 C   0  0  0  0  0  0  0  0  0  0  0  0
    1.8220   -1.1936    1.2218 H   0  0  0  0  0  0  0  0  0  0  0  0
   -0.1584   -1.0528    1.2703 O   0  0  0  0  0  0  0  0  0  0  0  0
    1.0080   -2.2996   -0.3122 O   0  0  0  0  0  0  0  0  0  0  0  0
    2.5903    0.3551   -0.5823 O   0  0  0  0  0  0  0  0  0  0  0  0
    0.8191    2.4635   -0.4598 O   0  0  0  0  0  0  0  0  0  0  0  0
   -1.6139    1.9541    1.1032 O   0  0  0  0  0  0  0  0  0  0  0  0
   -1.3879   -1.0448   -1.6111 O   0  0  0  0  0  0  0  0  0  0  0  0
   -3.0475   -0.8245   -0.4054 H   0  0  0  0  0  0  0  0  0  0  0  0
   -2.0203   -2.2438   -0.0440 H   0  0  0  0  0  0  0  0  0  0  0  0
    0.9325   -3.0903    0.2434 H   0  0  0  0  0  0  0  0  0  0  0  0
    3.0084   -0.3382   -1.1116 H   0  0  0  0  0  0  0  0  0  0  0  0
    1.7656    2.4836   -0.6698 H   0  0  0  0  0  0  0  0  0  0  0  0
   -1.3672    2.8539    0.8414 H   0  0  0  0  0  0  0  0  0  0  0  0
   -1.8361   -1.6096   -2.2566 H   0  0  0  0  0  0  0  0  0  0  0  0
  1  2  1  0  0  0  0
  2  3  1  0  0  0  0
  2  4  1  0  0  0  0
  4  5  1  0  0  0  0
  4  6  1  0  0  0  0
  6  7  1  0  0  0  0
  6  8  1  0  0  0  0
  8  9  1  0  0  0  0
  8 10  1  0  0  0  0
 10 11  1  0  0  0  0
  2 12  1  0  0  0  0
 10 12  1  0  0  0  0
 10 13  1  0  0  0  0
  8 14  1  0  0  0  0
  6 15  1  0  0  0  0
  4 16  1  0  0  0  0
  1 17  1  0  0  0  0
  1 18  1  0  0  0  0
  1 19  1  0  0  0  0
 13 20  1  0  0  0  0
 14 21  1  0  0  0  0
 15 22  1  0  0  0  0
 16 23  1  0  0  0  0
 17 24  1  0  0  0  0
M  END
