12
CONF1
C -2.0146203485 -0.1849700457 0.4762009301
C -0.9038034828 0.0479784220 -0.5474735505
C 0.4575721730 0.1048355485 0.1075837616
O 0.8348349672 -0.7745638215 0.9021527394
N 1.2396944251 1.1481766362 -0.2223906239
H -2.9817205950 -0.2577476468 -0.0279964705
H -1.8490856318 -1.1119905407 1.0310910463
H -2.0639365665 0.6409831448 1.1926276257
H -1.0912494075 0.9591837866 -1.1227823284
H -0.8727940040 -0.7871861852 -1.2587385218
H 0.9176798190 1.8601081132 -0.8585109194
H 2.1662093892 1.2237607077 0.1718313876
12
CONF2
C -1.8976833310 -0.6634928417 0.1750882030
C -0.9457829270 0.4611283425 -0.1987181354
C 0.5151652088 0.1011996542 -0.0196299765
O 0.8875629447 -1.0103589110 0.3904260346
N 1.3927917521 1.0727583297 -0.3353500194
H -1.7812428753 -0.9497079765 1.2240884458
H -2.9320849207 -0.3431463826 0.0233363810
H -1.7236684395 -1.5511926583 -0.4394006147
H -1.1463277299 1.3568444471 0.4019600591
H -1.0901895033 0.7622464949 -1.2436797996
H 1.0761183092 1.9697414081 -0.6684872112
H 2.3831072289 0.9044283584 -0.2414827978
12
CONF4
C -1.9615528946 0.4920728262 0.0634586304
C -0.8986919354 -0.5834337172 -0.1226942467
C 0.5510113348 -0.1650468744 -0.0239308359
O 1.4589501350 -1.0036320046 -0.1835338610
N 0.8184119075 1.1240357193 0.2425612204
H -2.9563168922 0.0501267238 -0.0411854117
H -1.9089016362 0.9475048235 1.0580533998
H -1.8734808072 1.2838424615 -0.6879417088
H -1.0041847749 -1.0643028450 -1.1024617884
H -1.0280782090 -1.3836534347 0.6161394055
H 0.0854183758 1.8019912328 0.3764667651
H 1.7795481284 1.4236346306 0.3162144001
12
CONF3
C -1.9612982615 0.4834506916 0.1007085487
C -0.8978469428 -0.5720626812 -0.1749968916
C 0.5506996077 -0.1631963932 -0.0322293535
O 1.4580408708 -1.0054686598 -0.1729493439
N 0.8179965662 1.1241979512 0.2405093272
H -1.8898482881 1.3248824306 -0.5960641495
H -2.9556008825 0.0445792391 -0.0180952429
H -1.8922383098 0.8695014889 1.1229451386
H -0.9979415008 -0.9600758641 -1.1961874524
H -1.0308154203 -1.4363371036 0.4857122083
H 0.0853405091 1.8048539410 0.3616665765
H 1.7783305192 1.4204707520 0.3345005459
12
CONF5
C -1.9439427198 0.4722171426 -0.0954870544
C -0.8877125639 -0.5821745454 0.2121969030
C 0.5631531518 -0.1584623893 0.1666073449
O 1.4687523593 -1.0048917744 0.2920834028
N 0.8342138072 1.1470678745 0.0056463209
H -1.9210024455 1.2958321973 0.6261586545
H -1.8190957079 0.8852596525 -1.1020713483
H -2.9394376522 0.0219684185 -0.0439911113
H -0.9744554141 -1.4288541183 -0.4778609132
H -1.0433168686 -0.9980619817 1.2155214720
H 0.1046036029 1.8322825633 -0.1049823869
H 1.7958251342 1.4525742336 -0.0192608288
