 xtb: 6.7.1 (edcfbbe)
          04052519393D

 23 24  0     0  0            999 V2000
    4.4384   -0.3780   -0.0744 C   0  0  0  0  0  0  0  0  0  0  0  0
    3.7154   -0.5184   -1.2472 C   0  0  0  0  0  0  0  0  0  0  0  0
    2.3601   -0.2372   -1.2662 C   0  0  0  0  0  0  0  0  0  0  0  0
    1.7376    0.1866   -0.1030 C   0  0  0  0  0  0  0  0  0  0  0  0
    2.4535    0.3280    1.0750 C   0  0  0  0  0  0  0  0  0  0  0  0
    3.8083    0.0444    1.0842 C   0  0  0  0  0  0  0  0  0  0  0  0
    0.3324    0.4678   -0.1149 N   0  0  0  0  0  0  0  0  0  0  0  0
   -0.5530   -0.5732    0.1452 C   0  0  0  0  0  0  0  0  0  0  0  0
   -0.1287   -1.7110    0.3806 O   0  0  0  0  0  0  0  0  0  0  0  0
   -1.9226   -0.1841    0.1084 C   0  0  0  0  0  0  0  0  0  0  0  0
   -2.3343    1.1098   -0.1617 C   0  0  0  0  0  0  0  0  0  0  0  0
   -1.2653    2.0369   -0.4027 C   0  0  0  0  0  0  0  0  0  0  0  0
   -0.0201    1.7120   -0.3749 N   0  0  0  0  0  0  0  0  0  0  0  0
   -3.6116    1.4911   -0.2005 N   0  0  0  0  0  0  0  0  0  0  0  0
   -3.0840   -1.4442    0.4279 Cl  0  0  0  0  0  0  0  0  0  0  0  0
    5.4937   -0.6015   -0.0627 H   0  0  0  0  0  0  0  0  0  0  0  0
    4.2038   -0.8500   -2.1500 H   0  0  0  0  0  0  0  0  0  0  0  0
    1.7839   -0.3494   -2.1715 H   0  0  0  0  0  0  0  0  0  0  0  0
    1.9492    0.6513    1.9724 H   0  0  0  0  0  0  0  0  0  0  0  0
    4.3690    0.1503    1.9996 H   0  0  0  0  0  0  0  0  0  0  0  0
   -1.4718    3.0713   -0.6225 H   0  0  0  0  0  0  0  0  0  0  0  0
   -3.8534    2.4448   -0.4025 H   0  0  0  0  0  0  0  0  0  0  0  0
   -4.3262    0.8047   -0.0247 H   0  0  0  0  0  0  0  0  0  0  0  0
  1  2  4  0  0  0  0
  2  3  4  0  0  0  0
  3  4  4  0  0  0  0
  4  5  4  0  0  0  0
  1  6  4  0  0  0  0
  5  6  4  0  0  0  0
  4  7  1  0  0  0  0
  7  8  1  0  0  0  0
  8  9  2  0  0  0  0
  8 10  1  0  0  0  0
 10 11  4  0  0  0  0
 11 12  1  0  0  0  0
  7 13  4  0  0  0  0
 12 13  2  0  0  0  0
 11 14  4  0  0  0  0
 10 15  1  0  0  0  0
  1 16  1  0  0  0  0
  2 17  1  0  0  0  0
  3 18  1  0  0  0  0
  5 19  1  0  0  0  0
  6 20  1  0  0  0  0
 12 21  1  0  0  0  0
 14 22  1  0  0  0  0
 14 23  1  0  0  0  0
M  END
