14
 xtb: 6.7.1 (edcfbbe)
C           -2.18943567499914       -0.09713899566692       -0.65897208458302
C           -1.43507346228564        0.22187662936027        0.61096793811827
O           -0.11492707154886        0.77829381833060        0.30705386218227
C            0.87126850239581       -0.09815720691144        0.03570546080710
O            0.72603459617165       -1.30993648187162        0.07487178207584
C            2.14783392946467        0.58519818318205       -0.33593710970327
H           -3.19044868177895       -0.45533033891292       -0.39835072227751
H           -2.29632372890355        0.79591088226920       -1.28151355736126
H           -1.68648321091943       -0.87667362577350       -1.23761654742203
H           -1.30849749245577       -0.65643852483176        1.24859373736015
H           -1.92688098281376        1.01231463559745        1.18091395522800
H            2.15476510192634        1.63436925997023       -0.04025950900558
H            2.25836718905292        0.52305058749657       -1.42442175319759
H            2.98729549826720        0.05230656921878        0.11525988892139
