16
CONF2
C -1.4380834689 0.7667242058 -0.1424297886
C -1.2789676707 -0.7336206275 -0.4664500071
C -0.1373667670 -1.1859334970 0.4518000532
C 0.8415501344 -0.0198318814 0.3998370031
C -0.0597942267 1.2248367555 0.4109653270
O 1.5721314340 -0.1350666736 -0.8486787852
H -2.2094833962 0.9046813336 0.6221467890
H -1.7470950197 1.3437887560 -1.0186754429
H -2.2013225220 -1.2983898553 -0.3027914146
H -0.9891790924 -0.8726435408 -1.5134487577
H -0.4996348927 -1.2903005348 1.4814835529
H 0.3278554605 -2.1313608627 0.1560797416
H 1.5569636504 -0.0256948297 1.2325566587
H -0.1557645267 1.5950534729 1.4371338712
H 0.3916414252 2.0292132262 -0.1796370880
H 2.0806948340 0.6791976445 -0.9566300943
16
CONF3
C -1.4653488794 0.7668193543 -0.0712960260
C -1.2751325584 -0.6867555486 -0.5212951866
C -0.1818836058 -1.1783385064 0.4312114425
C 0.8148407014 -0.0138600155 0.4772337823
C -0.0367623868 1.2545760906 0.2598184940
O 1.7638976136 -0.0939154604 -0.6183501762
H -2.0851447810 0.7851827790 0.8323986806
H -1.9581060436 1.3907931287 -0.8221411212
H -2.1942290760 -1.2773115627 -0.4644578602
H -0.9147194283 -0.7211055962 -1.5564330214
H -0.6065136153 -1.3211298883 1.4330855474
H 0.2986395214 -2.1155822422 0.1317139389
H 1.3726567917 0.0132948552 1.4212704619
H -0.0181514108 1.9053465203 1.1375189051
H 0.3902249121 1.8206978121 -0.5735184745
H 2.2690991399 -0.9080597827 -0.4935006597
16
CONF1
C -1.3292943481 0.7757827345 -0.4269579798
C -1.5435324139 -0.6643861905 0.0511528139
C -0.1220389864 -1.2386599726 0.0293076773
C 0.7994785360 -0.0705991581 0.4520365962
C -0.0801487546 1.2011274027 0.3553810246
O 1.9973785668 0.0009949228 -0.3516859489
H -2.1894690643 1.4276200494 -0.2472505057
H -1.1241511870 0.7779811580 -1.5051365055
H -1.9354897951 -0.6570125640 1.0759563591
H -2.2402451733 -1.2335684260 -0.5715913361
H 0.0066870229 -2.1247815850 0.6570607215
H 0.1378131708 -1.5197617735 -0.9993696633
H 1.1727034140 -0.2059816590 1.4708651805
H -0.3719764056 1.5154360648 1.3638550551
H 0.4725304725 2.0279932173 -0.1008498523
H 1.7176564901 0.0947759792 -1.2725476485
