 xtb: 6.7.1 (edcfbbe)
          04052516073D

 27 27  0     0  0            999 V2000
   -3.4023    0.5289    0.0324 C   0  0  0  0  0  0  0  0  0  0  0  0
   -1.9221    0.4840    0.3957 C   0  0  0  0  0  0  0  0  0  0  0  0
   -1.8006    0.7197    1.4583 H   0  0  0  0  0  0  0  0  0  0  0  0
   -1.1052    1.4994   -0.4201 C   0  0  0  0  0  0  0  0  0  0  0  0
    0.3735    1.4404   -0.0576 C   0  0  0  0  0  0  0  0  0  0  0  0
    0.9341    0.0379   -0.3077 C   0  0  0  0  0  0  0  0  0  0  0  0
    0.7947   -0.2037   -1.3669 H   0  0  0  0  0  0  0  0  0  0  0  0
    0.1323   -0.9884    0.5145 C   0  0  0  0  0  0  0  0  0  0  0  0
   -1.3289   -0.8879    0.1700 C   0  0  0  0  0  0  0  0  0  0  0  0
   -1.9613   -1.8231   -0.2801 O   0  0  0  0  0  0  0  0  0  0  0  0
    2.4125   -0.0377    0.0105 C   0  0  0  0  0  0  0  0  0  0  0  0
    2.8872    0.1443    1.2326 C   0  0  0  0  0  0  0  0  0  0  0  0
    3.3042   -0.3180   -1.1591 C   0  0  0  0  0  0  0  0  0  0  0  0
   -3.8091    1.5187    0.2192 H   0  0  0  0  0  0  0  0  0  0  0  0
   -3.5385    0.2830   -1.0184 H   0  0  0  0  0  0  0  0  0  0  0  0
   -3.9564   -0.1993    0.6198 H   0  0  0  0  0  0  0  0  0  0  0  0
   -1.2346    1.2823   -1.4830 H   0  0  0  0  0  0  0  0  0  0  0  0
   -1.4976    2.4998   -0.2329 H   0  0  0  0  0  0  0  0  0  0  0  0
    0.9277    2.1625   -0.6594 H   0  0  0  0  0  0  0  0  0  0  0  0
    0.5093    1.7057    0.9916 H   0  0  0  0  0  0  0  0  0  0  0  0
    0.4856   -2.0006    0.3107 H   0  0  0  0  0  0  0  0  0  0  0  0
    0.2597   -0.7785    1.5766 H   0  0  0  0  0  0  0  0  0  0  0  0
    3.9422    0.0978    1.4401 H   0  0  0  0  0  0  0  0  0  0  0  0
    2.2520    0.3463    2.0776 H   0  0  0  0  0  0  0  0  0  0  0  0
    3.1716    0.4473   -1.9226 H   0  0  0  0  0  0  0  0  0  0  0  0
    4.3484   -0.3397   -0.8606 H   0  0  0  0  0  0  0  0  0  0  0  0
    3.0453   -1.2783   -1.6035 H   0  0  0  0  0  0  0  0  0  0  0  0
  1  2  1  0  0  0  0
  2  3  1  0  0  0  0
  2  4  1  0  0  0  0
  4  5  1  0  0  0  0
  5  6  1  0  0  0  0
  6  7  1  0  0  0  0
  6  8  1  0  0  0  0
  2  9  1  0  0  0  0
  8  9  1  0  0  0  0
  9 10  2  0  0  0  0
  6 11  1  0  0  0  0
 11 12  2  0  0  0  0
 11 13  1  0  0  0  0
  1 14  1  0  0  0  0
  1 15  1  0  0  0  0
  1 16  1  0  0  0  0
  4 17  1  0  0  0  0
  4 18  1  0  0  0  0
  5 19  1  0  0  0  0
  5 20  1  0  0  0  0
  8 21  1  0  0  0  0
  8 22  1  0  0  0  0
 12 23  1  0  0  0  0
 12 24  1  0  0  0  0
 13 25  1  0  0  0  0
 13 26  1  0  0  0  0
 13 27  1  0  0  0  0
M  END
