 xtb: 6.7.1 (edcfbbe)
          04032521503D

 21 21  0     0  0            999 V2000
    2.5004    0.0001   -0.0711 C   0  0  0  0  0  0  0  0  0  0  0  0
    1.0149   -0.0000    0.3275 C   0  0  0  0  0  0  0  0  0  0  0  0
    0.2972    1.2474   -0.1938 C   0  0  0  0  0  0  0  0  0  0  0  0
   -1.1706    1.2517    0.2240 C   0  0  0  0  0  0  0  0  0  0  0  0
   -1.8765    0.0000   -0.2882 C   0  0  0  0  0  0  0  0  0  0  0  0
   -1.1707   -1.2517    0.2240 C   0  0  0  0  0  0  0  0  0  0  0  0
    0.2971   -1.2474   -0.1939 C   0  0  0  0  0  0  0  0  0  0  0  0
    3.1437    0.0096    0.8045 H   0  0  0  0  0  0  0  0  0  0  0  0
    2.7446   -0.8833   -0.6560 H   0  0  0  0  0  0  0  0  0  0  0  0
    2.7403    0.8738   -0.6718 H   0  0  0  0  0  0  0  0  0  0  0  0
    0.9365    0.0001    1.4203 H   0  0  0  0  0  0  0  0  0  0  0  0
    0.7917    2.1426    0.1899 H   0  0  0  0  0  0  0  0  0  0  0  0
    0.3625    1.2678   -1.2845 H   0  0  0  0  0  0  0  0  0  0  0  0
   -1.2358    1.2830    1.3143 H   0  0  0  0  0  0  0  0  0  0  0  0
   -1.6642    2.1442   -0.1662 H   0  0  0  0  0  0  0  0  0  0  0  0
   -2.9190    0.0000    0.0365 H   0  0  0  0  0  0  0  0  0  0  0  0
   -1.8650    0.0000   -1.3805 H   0  0  0  0  0  0  0  0  0  0  0  0
   -1.2358   -1.2828    1.3143 H   0  0  0  0  0  0  0  0  0  0  0  0
   -1.6643   -2.1442   -0.1662 H   0  0  0  0  0  0  0  0  0  0  0  0
    0.7914   -2.1428    0.1899 H   0  0  0  0  0  0  0  0  0  0  0  0
    0.3626   -1.2678   -1.2845 H   0  0  0  0  0  0  0  0  0  0  0  0
  1  2  1  0  0  0  0
  2  3  1  0  0  0  0
  3  4  1  0  0  0  0
  4  5  1  0  0  0  0
  5  6  1  0  0  0  0
  2  7  1  0  0  0  0
  6  7  1  0  0  0  0
  1  8  1  0  0  0  0
  1  9  1  0  0  0  0
  1 10  1  0  0  0  0
  2 11  1  0  0  0  0
  3 12  1  0  0  0  0
  3 13  1  0  0  0  0
  4 14  1  0  0  0  0
  4 15  1  0  0  0  0
  5 16  1  0  0  0  0
  5 17  1  0  0  0  0
  6 18  1  0  0  0  0
  6 19  1  0  0  0  0
  7 20  1  0  0  0  0
  7 21  1  0  0  0  0
M  END
