 xtb: 6.7.1 (edcfbbe)
          04032521363D

 19 19  0     0  0            999 V2000
   -1.8960   -0.0001    0.2786 C   0  0  0  0  0  0  0  0  0  0  0  0
   -1.1873   -1.2536   -0.2273 C   0  0  0  0  0  0  0  0  0  0  0  0
    0.2761   -1.2529    0.2054 C   0  0  0  0  0  0  0  0  0  0  0  0
    0.9868    0.0001   -0.3134 C   0  0  0  0  0  0  0  0  0  0  0  0
    0.2759    1.2530    0.2054 C   0  0  0  0  0  0  0  0  0  0  0  0
   -1.1875    1.2535   -0.2273 C   0  0  0  0  0  0  0  0  0  0  0  0
    2.3665    0.0002    0.0090 O   0  0  0  0  0  0  0  0  0  0  0  0
   -1.8969   -0.0002    1.3708 H   0  0  0  0  0  0  0  0  0  0  0  0
   -2.9340   -0.0002   -0.0578 H   0  0  0  0  0  0  0  0  0  0  0  0
   -1.6833   -2.1454    0.1596 H   0  0  0  0  0  0  0  0  0  0  0  0
   -1.2407   -1.2854   -1.3177 H   0  0  0  0  0  0  0  0  0  0  0  0
    0.3342   -1.2690    1.2969 H   0  0  0  0  0  0  0  0  0  0  0  0
    0.7876   -2.1395   -0.1742 H   0  0  0  0  0  0  0  0  0  0  0  0
    0.9681    0.0001   -1.4098 H   0  0  0  0  0  0  0  0  0  0  0  0
    0.3340    1.2691    1.2969 H   0  0  0  0  0  0  0  0  0  0  0  0
    0.7873    2.1397   -0.1742 H   0  0  0  0  0  0  0  0  0  0  0  0
   -1.6836    2.1451    0.1596 H   0  0  0  0  0  0  0  0  0  0  0  0
   -1.2409    1.2852   -1.3177 H   0  0  0  0  0  0  0  0  0  0  0  0
    2.4616    0.0002    0.9719 H   0  0  0  0  0  0  0  0  0  0  0  0
  1  2  1  0  0  0  0
  2  3  1  0  0  0  0
  3  4  1  0  0  0  0
  4  5  1  0  0  0  0
  1  6  1  0  0  0  0
  5  6  1  0  0  0  0
  4  7  1  0  0  0  0
  1  8  1  0  0  0  0
  1  9  1  0  0  0  0
  2 10  1  0  0  0  0
  2 11  1  0  0  0  0
  3 12  1  0  0  0  0
  3 13  1  0  0  0  0
  4 14  1  0  0  0  0
  5 15  1  0  0  0  0
  5 16  1  0  0  0  0
  6 17  1  0  0  0  0
  6 18  1  0  0  0  0
  7 19  1  0  0  0  0
M  END
