6
 xtb: 6.7.1 (edcfbbe)
C            1.23358203090441       -0.01053079087681       -0.00000166112942
S           -0.60554077350710        0.04662165449482        0.00000099037331
H            1.57699962843085        1.02627572714202       -0.00003235964369
H            1.60637713665246       -0.50974448813057       -0.89615304422335
H            1.60638232864998       -0.50969434532008        0.89617553304119
H           -0.80946553111613       -1.28382529650321        0.00001982088531
