 xtb: 6.7.1 (edcfbbe)
          04062519153D

 24 24  0     0  0            999 V2000
   -2.5591   -0.6782   -0.3274 C   0  0  0  0  0  0  0  0  0  0  0  0
   -1.1704   -0.3183    0.2156 C   0  0  0  0  0  0  0  0  0  0  0  0
   -1.2050   -0.2948    1.3181 H   0  0  0  0  0  0  0  0  0  0  0  0
   -0.7058    1.0478   -0.3104 C   0  0  0  0  0  0  0  0  0  0  0  0
   -0.7193    1.0277   -1.4058 H   0  0  0  0  0  0  0  0  0  0  0  0
    0.7324    1.3441    0.1509 C   0  0  0  0  0  0  0  0  0  0  0  0
    0.7470    1.4992    1.2434 H   0  0  0  0  0  0  0  0  0  0  0  0
    1.6631    0.1698   -0.1603 C   0  0  0  0  0  0  0  0  0  0  0  0
    1.8196    0.1252   -1.2467 H   0  0  0  0  0  0  0  0  0  0  0  0
    1.0337   -1.1609    0.2947 C   0  0  0  0  0  0  0  0  0  0  0  0
    1.0073   -1.1657    1.4062 H   0  0  0  0  0  0  0  0  0  0  0  0
   -0.2735   -1.3346   -0.1974 O   0  0  0  0  0  0  0  0  0  0  0  0
    1.8256   -2.1801   -0.1932 O   0  0  0  0  0  0  0  0  0  0  0  0
    2.8741    0.3779    0.5175 O   0  0  0  0  0  0  0  0  0  0  0  0
    1.2321    2.4855   -0.4986 O   0  0  0  0  0  0  0  0  0  0  0  0
   -1.5699    2.0904    0.0589 O   0  0  0  0  0  0  0  0  0  0  0  0
   -3.1541   -1.7391    0.3709 O   0  0  0  0  0  0  0  0  0  0  0  0
   -2.4615   -0.9100   -1.3939 H   0  0  0  0  0  0  0  0  0  0  0  0
   -3.2196    0.1820   -0.2057 H   0  0  0  0  0  0  0  0  0  0  0  0
    1.3978   -3.0379   -0.0458 H   0  0  0  0  0  0  0  0  0  0  0  0
    3.5036   -0.3103    0.2552 H   0  0  0  0  0  0  0  0  0  0  0  0
    0.5580    3.1827   -0.4569 H   0  0  0  0  0  0  0  0  0  0  0  0
   -1.6416    2.1345    1.0246 H   0  0  0  0  0  0  0  0  0  0  0  0
   -2.6279   -2.5391    0.2324 H   0  0  0  0  0  0  0  0  0  0  0  0
  1  2  1  0  0  0  0
  2  3  1  0  0  0  0
  2  4  1  0  0  0  0
  4  5  1  0  0  0  0
  4  6  1  0  0  0  0
  6  7  1  0  0  0  0
  6  8  1  0  0  0  0
  8  9  1  0  0  0  0
  8 10  1  0  0  0  0
 10 11  1  0  0  0  0
  2 12  1  0  0  0  0
 10 12  1  0  0  0  0
 10 13  1  0  0  0  0
  8 14  1  0  0  0  0
  6 15  1  0  0  0  0
  4 16  1  0  0  0  0
  1 17  1  0  0  0  0
  1 18  1  0  0  0  0
  1 19  1  0  0  0  0
 13 20  1  0  0  0  0
 14 21  1  0  0  0  0
 15 22  1  0  0  0  0
 16 23  1  0  0  0  0
 17 24  1  0  0  0  0
M  END
