 xtb: 6.7.1 (edcfbbe)
          04042523483D

 16 15  0     0  0            999 V2000
    1.2449    1.4577   -0.2335 C   0  0  0  0  0  0  0  0  0  0  0  0
    0.7142    0.0395   -0.4255 C   0  0  0  0  0  0  0  0  0  0  0  0
    1.5313   -0.9589    0.4055 C   0  0  0  0  0  0  0  0  0  0  0  0
   -0.7434   -0.0541   -0.0097 C   0  0  0  0  0  0  0  0  0  0  0  0
   -1.2788    0.7977    0.6719 O   0  0  0  0  0  0  0  0  0  0  0  0
   -1.4772   -1.2806   -0.4704 C   0  0  0  0  0  0  0  0  0  0  0  0
    1.1624    1.7487    0.8112 H   0  0  0  0  0  0  0  0  0  0  0  0
    2.2864    1.5171   -0.5363 H   0  0  0  0  0  0  0  0  0  0  0  0
    0.6647    2.1630   -0.8243 H   0  0  0  0  0  0  0  0  0  0  0  0
    0.7897   -0.2390   -1.4804 H   0  0  0  0  0  0  0  0  0  0  0  0
    1.2400   -1.9823    0.1893 H   0  0  0  0  0  0  0  0  0  0  0  0
    1.3887   -0.7677    1.4669 H   0  0  0  0  0  0  0  0  0  0  0  0
    2.5867   -0.8439    0.1740 H   0  0  0  0  0  0  0  0  0  0  0  0
   -2.5393   -1.1753   -0.2669 H   0  0  0  0  0  0  0  0  0  0  0  0
   -1.0998   -2.1438    0.0731 H   0  0  0  0  0  0  0  0  0  0  0  0
   -1.3116   -1.4488   -1.5302 H   0  0  0  0  0  0  0  0  0  0  0  0
  1  2  1  0  0  0  0
  2  3  1  0  0  0  0
  2  4  1  0  0  0  0
  4  5  2  0  0  0  0
  4  6  1  0  0  0  0
  1  7  1  0  0  0  0
  1  8  1  0  0  0  0
  1  9  1  0  0  0  0
  2 10  1  0  0  0  0
  3 11  1  0  0  0  0
  3 12  1  0  0  0  0
  3 13  1  0  0  0  0
  6 14  1  0  0  0  0
  6 15  1  0  0  0  0
  6 16  1  0  0  0  0
M  END
