24
CONF1
C -3.5333964255 -0.2976530383 -0.0003155805
C -2.8609321623 -1.5204911404 0.0002985659
C -1.4881690168 -1.5603834453 0.0005410079
C -0.7217469774 -0.3835002143 0.0001885618
C -1.4099148815 0.8532873758 -0.0001537763
C -2.8142044864 0.8695558995 -0.0005217037
C -0.6757345637 2.0738794386 0.0000227648
C 0.6757127033 2.0738840810 0.0003591437
C 1.4099088997 0.8533006008 0.0002419850
C 0.7217564790 -0.3834884334 0.0000545224
C 1.4881785110 -1.5603881409 -0.0002503427
C 2.8609418033 -1.5204804133 -0.0003564504
C 3.5334027041 -0.2976466683 -0.0001310449
C 2.8142026359 0.8695565979 0.0001029920
H -4.6127739731 -0.2764387718 -0.0006081506
H -3.4256254610 -2.4409004244 0.0005583112
H -1.0001818335 -2.5218294012 0.0010445641
H -3.3200243613 1.8244206544 -0.0008961167
H -1.2306094535 3.0010142502 -0.0001804520
H 1.2305572089 3.0010312137 0.0003531071
H 1.0001477300 -2.5218328223 -0.0002572067
H 3.4256311176 -2.4408786020 -0.0007515580
H 4.6127829468 -0.2764152552 -0.0003600664
H 3.3200338406 1.8244120030 0.0001365319
