24
CONF1
C -3.5505720341 -0.2981911473 -0.0002315937
C -2.8745033207 -1.5288678469 0.0002400058
C -1.4940406109 -1.5709089908 0.0004163622
C -0.7258517607 -0.3870819085 0.0001246320
C -1.4170609087 0.8595652298 -0.0001357777
C -2.8284598979 0.8756997752 -0.0003665202
C -0.6793667406 2.0841862971 -0.0000928205
C 0.6793544826 2.0841892075 0.0001319149
C 1.4170532748 0.8595711291 0.0001444408
C 0.7258490943 -0.3870783232 0.0000681429
C 1.4940418078 -1.5709032597 -0.0001827524
C 2.8745041176 -1.5288582102 -0.0002887605
C 3.5505681253 -0.2981786711 -0.0001224584
C 2.8284522351 0.8757098557 0.0000965072
H -4.6356366590 -0.2741029589 -0.0004347727
H -3.4394591206 -2.4557314489 0.0004764350
H -1.0051286876 -2.5379751963 0.0008350345
H -3.3360349772 1.8363072311 -0.0006505021
H -1.2343598294 3.0180580234 -0.0001982980
H 1.2343426470 3.0180637027 0.0002388751
H 1.0051301496 -2.5379696696 -0.0003967761
H 3.4394633661 -2.4557197410 -0.0005294985
H 4.6356326623 -0.2740859323 -0.0001953697
H 3.3360256217 1.8363181010 0.0001730593
