 xtb: 6.7.1 (edcfbbe)
          04062518003D

 24 24  0     0  0            999 V2000
   -2.5555   -0.8910    0.3132 C   0  0  0  0  0  0  0  0  0  0  0  0
   -1.1209   -0.4454    0.6369 C   0  0  0  0  0  0  0  0  0  0  0  0
   -0.9822   -0.4095    1.7300 H   0  0  0  0  0  0  0  0  0  0  0  0
   -0.8241    0.9398    0.0415 C   0  0  0  0  0  0  0  0  0  0  0  0
   -1.0844    0.9248   -1.0229 H   0  0  0  0  0  0  0  0  0  0  0  0
    0.6651    1.3000    0.1840 C   0  0  0  0  0  0  0  0  0  0  0  0
    0.8985    1.4834    1.2475 H   0  0  0  0  0  0  0  0  0  0  0  0
    1.5670    0.1585   -0.2900 C   0  0  0  0  0  0  0  0  0  0  0  0
    1.4982    0.0856   -1.3839 H   0  0  0  0  0  0  0  0  0  0  0  0
    1.1046   -1.1777    0.3198 C   0  0  0  0  0  0  0  0  0  0  0  0
    1.2849   -1.1370    1.4159 H   0  0  0  0  0  0  0  0  0  0  0  0
   -0.2599   -1.4253    0.0861 O   0  0  0  0  0  0  0  0  0  0  0  0
    1.8365   -2.1863   -0.2724 O   0  0  0  0  0  0  0  0  0  0  0  0
    2.8804    0.4383    0.1174 O   0  0  0  0  0  0  0  0  0  0  0  0
    0.9683    2.4452   -0.5722 O   0  0  0  0  0  0  0  0  0  0  0  0
   -1.6267    1.9421    0.6112 O   0  0  0  0  0  0  0  0  0  0  0  0
   -2.7521   -1.0717   -1.0633 O   0  0  0  0  0  0  0  0  0  0  0  0
   -3.2512   -0.1101    0.6240 H   0  0  0  0  0  0  0  0  0  0  0  0
   -2.7708   -1.8170    0.8600 H   0  0  0  0  0  0  0  0  0  0  0  0
    1.4790   -3.0511   -0.0163 H   0  0  0  0  0  0  0  0  0  0  0  0
    3.4729   -0.2357   -0.2479 H   0  0  0  0  0  0  0  0  0  0  0  0
    0.2855    3.1140   -0.4036 H   0  0  0  0  0  0  0  0  0  0  0  0
   -1.4693    1.9894    1.5664 H   0  0  0  0  0  0  0  0  0  0  0  0
   -2.1035   -1.7177   -1.3799 H   0  0  0  0  0  0  0  0  0  0  0  0
  1  2  1  0  0  0  0
  2  3  1  0  0  0  0
  2  4  1  0  0  0  0
  4  5  1  0  0  0  0
  4  6  1  0  0  0  0
  6  7  1  0  0  0  0
  6  8  1  0  0  0  0
  8  9  1  0  0  0  0
  8 10  1  0  0  0  0
 10 11  1  0  0  0  0
  2 12  1  0  0  0  0
 10 12  1  0  0  0  0
 10 13  1  0  0  0  0
  8 14  1  0  0  0  0
  6 15  1  0  0  0  0
  4 16  1  0  0  0  0
  1 17  1  0  0  0  0
  1 18  1  0  0  0  0
  1 19  1  0  0  0  0
 13 20  1  0  0  0  0
 14 21  1  0  0  0  0
 15 22  1  0  0  0  0
 16 23  1  0  0  0  0
 17 24  1  0  0  0  0
M  END
