19
 xtb: 6.7.1 (edcfbbe)
C           -3.10079086021281        0.40245769515204        0.07873130477767
C           -1.63789664901816        0.05486944690741        0.04028277385122
C           -1.20479165101281       -1.26903721056325       -0.03153205105813
C            0.15382025662654       -1.57604541607508       -0.08801327991080
C            1.09522628496803       -0.55269853743329       -0.07294745732091
C            0.70048361755619        0.79087271330693        0.00403599508002
C           -0.66565974011555        1.06226154594764        0.05907030596538
C            1.72865231171559        1.88258444121740        0.02660990045655
O            2.45210726818805       -0.80553066843347       -0.13130156662636
H           -3.71331017496248       -0.48809870191857        0.24217769988630
H           -3.31876138107269        1.12002773623186        0.87645956098878
H           -3.42340467168086        0.86155226701321       -0.86320514592659
H           -1.93259977736030       -2.07571262926958       -0.04389537020440
H            0.48511158744803       -2.61008097170868       -0.14350271750304
H           -0.98214054052854        2.10158665475116        0.11877673272712
H            1.24786834684864        2.86136728706550        0.09961616448446
H            2.41187106603090        1.76974930270848        0.87667880268762
H            2.34590649855621        1.86850280844523       -0.87949285537967
H            2.58787835607466       -1.76110158121189       -0.19582460597726
