 xtb: 6.7.1 (edcfbbe)
          04032521533D

 18 17  0     0  0            999 V2000
    0.5320    0.8894   -1.2593 C   0  0  0  0  0  0  0  0  0  0  0  0
    0.4079    0.0225   -0.0000 C   0  0  0  0  0  0  0  0  0  0  0  0
    0.5308    0.8937    1.2564 C   0  0  0  0  0  0  0  0  0  0  0  0
    1.5038   -1.0481    0.0023 C   0  0  0  0  0  0  0  0  0  0  0  0
   -0.8109   -0.7393    0.0005 O   0  0  0  0  0  0  0  0  0  0  0  0
   -2.0295   -0.0300    0.0001 C   0  0  0  0  0  0  0  0  0  0  0  0
    1.5389    1.2902   -1.3241 H   0  0  0  0  0  0  0  0  0  0  0  0
    0.3347    0.2875   -2.1434 H   0  0  0  0  0  0  0  0  0  0  0  0
   -0.1671    1.7217   -1.2356 H   0  0  0  0  0  0  0  0  0  0  0  0
    0.3341    0.2946    2.1425 H   0  0  0  0  0  0  0  0  0  0  0  0
   -0.1691    1.7252    1.2298 H   0  0  0  0  0  0  0  0  0  0  0  0
    1.5373    1.2957    1.3199 H   0  0  0  0  0  0  0  0  0  0  0  0
    1.4003   -1.6739    0.8842 H   0  0  0  0  0  0  0  0  0  0  0  0
    1.4007   -1.6774   -0.8771 H   0  0  0  0  0  0  0  0  0  0  0  0
    2.4856   -0.5860    0.0016 H   0  0  0  0  0  0  0  0  0  0  0  0
   -2.1400    0.5920   -0.8928 H   0  0  0  0  0  0  0  0  0  0  0  0
   -2.1410    0.5914    0.8932 H   0  0  0  0  0  0  0  0  0  0  0  0
   -2.8042   -0.7945   -0.0006 H   0  0  0  0  0  0  0  0  0  0  0  0
  1  2  1  0  0  0  0
  2  3  1  0  0  0  0
  2  4  1  0  0  0  0
  2  5  1  0  0  0  0
  5  6  1  0  0  0  0
  1  7  1  0  0  0  0
  1  8  1  0  0  0  0
  1  9  1  0  0  0  0
  3 10  1  0  0  0  0
  3 11  1  0  0  0  0
  3 12  1  0  0  0  0
  4 13  1  0  0  0  0
  4 14  1  0  0  0  0
  4 15  1  0  0  0  0
  6 16  1  0  0  0  0
  6 17  1  0  0  0  0
  6 18  1  0  0  0  0
M  END
