 xtb: 6.7.1 (edcfbbe)
          04062518003D

 24 24  0     0  0            999 V2000
   -2.5403   -0.6815   -0.3916 C   0  0  0  0  0  0  0  0  0  0  0  0
   -1.1679   -0.3327    0.2003 C   0  0  0  0  0  0  0  0  0  0  0  0
   -1.2304   -0.3184    1.3016 H   0  0  0  0  0  0  0  0  0  0  0  0
   -0.7087    1.0608   -0.2901 C   0  0  0  0  0  0  0  0  0  0  0  0
   -0.7162    1.0743   -1.3851 H   0  0  0  0  0  0  0  0  0  0  0  0
    0.7240    1.3227    0.1940 C   0  0  0  0  0  0  0  0  0  0  0  0
    0.7192    1.3883    1.2983 H   0  0  0  0  0  0  0  0  0  0  0  0
    1.6360    0.1546   -0.2234 C   0  0  0  0  0  0  0  0  0  0  0  0
    1.6664    0.1086   -1.3179 H   0  0  0  0  0  0  0  0  0  0  0  0
    1.0460   -1.1623    0.3201 C   0  0  0  0  0  0  0  0  0  0  0  0
    1.0152   -1.1165    1.4245 H   0  0  0  0  0  0  0  0  0  0  0  0
   -0.2535   -1.3379   -0.1948 O   0  0  0  0  0  0  0  0  0  0  0  0
    1.8040   -2.2693    0.0094 O   0  0  0  0  0  0  0  0  0  0  0  0
    2.9591    0.3788    0.1897 O   0  0  0  0  0  0  0  0  0  0  0  0
    1.1837    2.5375   -0.3414 O   0  0  0  0  0  0  0  0  0  0  0  0
   -1.6095    2.0586    0.1041 O   0  0  0  0  0  0  0  0  0  0  0  0
   -3.1960   -1.7258    0.2768 O   0  0  0  0  0  0  0  0  0  0  0  0
   -2.3912   -1.0291   -1.4152 H   0  0  0  0  0  0  0  0  0  0  0  0
   -3.1480    0.2308   -0.4027 H   0  0  0  0  0  0  0  0  0  0  0  0
    1.7023   -2.4845   -0.9308 H   0  0  0  0  0  0  0  0  0  0  0  0
    3.0778    0.1096    1.1120 H   0  0  0  0  0  0  0  0  0  0  0  0
    2.1536    2.5420   -0.3000 H   0  0  0  0  0  0  0  0  0  0  0  0
   -1.4516    2.3095    1.0262 H   0  0  0  0  0  0  0  0  0  0  0  0
   -3.4447   -1.4403    1.1676 H   0  0  0  0  0  0  0  0  0  0  0  0
  1  2  1  0  0  0  0
  2  3  1  0  0  0  0
  2  4  1  0  0  0  0
  4  5  1  0  0  0  0
  4  6  1  0  0  0  0
  6  7  1  0  0  0  0
  6  8  1  0  0  0  0
  8  9  1  0  0  0  0
  8 10  1  0  0  0  0
 10 11  1  0  0  0  0
  2 12  1  0  0  0  0
 10 12  1  0  0  0  0
 10 13  1  0  0  0  0
  8 14  1  0  0  0  0
  6 15  1  0  0  0  0
  4 16  1  0  0  0  0
  1 17  1  0  0  0  0
  1 18  1  0  0  0  0
  1 19  1  0  0  0  0
 13 20  1  0  0  0  0
 14 21  1  0  0  0  0
 15 22  1  0  0  0  0
 16 23  1  0  0  0  0
 17 24  1  0  0  0  0
M  END
