 xtb: 6.7.1 (edcfbbe)
          04052517383D

 24 24  0     0  0            999 V2000
   -3.6331    0.2373   -0.0011 C   0  0  0  0  0  0  0  0  0  0  0  0
   -2.1439    0.0686    0.0010 C   0  0  0  0  0  0  0  0  0  0  0  0
   -1.5564   -1.1879   -0.0002 C   0  0  0  0  0  0  0  0  0  0  0  0
   -0.1791   -1.3272   -0.0008 C   0  0  0  0  0  0  0  0  0  0  0  0
    0.6540   -0.2173   -0.0002 C   0  0  0  0  0  0  0  0  0  0  0  0
    0.0638    1.0418    0.0013 C   0  0  0  0  0  0  0  0  0  0  0  0
   -1.3101    1.1817    0.0019 C   0  0  0  0  0  0  0  0  0  0  0  0
    2.1543   -0.3816   -0.0009 C   0  0  0  0  0  0  0  0  0  0  0  0
    2.7704    0.2307    1.2592 C   0  0  0  0  0  0  0  0  0  0  0  0
    2.7696    0.2347   -1.2595 C   0  0  0  0  0  0  0  0  0  0  0  0
   -4.1330   -0.7269    0.0339 H   0  0  0  0  0  0  0  0  0  0  0  0
   -3.9487    0.8268    0.8582 H   0  0  0  0  0  0  0  0  0  0  0  0
   -3.9517    0.7628   -0.9003 H   0  0  0  0  0  0  0  0  0  0  0  0
   -2.1807   -2.0703   -0.0007 H   0  0  0  0  0  0  0  0  0  0  0  0
    0.2538   -2.3180   -0.0017 H   0  0  0  0  0  0  0  0  0  0  0  0
    0.6825    1.9271    0.0022 H   0  0  0  0  0  0  0  0  0  0  0  0
   -1.7473    2.1703    0.0031 H   0  0  0  0  0  0  0  0  0  0  0  0
    2.3777   -1.4545   -0.0027 H   0  0  0  0  0  0  0  0  0  0  0  0
    2.6003    1.3039    1.2891 H   0  0  0  0  0  0  0  0  0  0  0  0
    3.8429    0.0517    1.2777 H   0  0  0  0  0  0  0  0  0  0  0  0
    2.3286   -0.2118    2.1493 H   0  0  0  0  0  0  0  0  0  0  0  0
    2.5986    1.3078   -1.2865 H   0  0  0  0  0  0  0  0  0  0  0  0
    2.3279   -0.2058   -2.1507 H   0  0  0  0  0  0  0  0  0  0  0  0
    3.8423    0.0566   -1.2787 H   0  0  0  0  0  0  0  0  0  0  0  0
  1  2  1  0  0  0  0
  2  3  4  0  0  0  0
  3  4  4  0  0  0  0
  4  5  4  0  0  0  0
  5  6  4  0  0  0  0
  2  7  4  0  0  0  0
  6  7  4  0  0  0  0
  5  8  1  0  0  0  0
  8  9  1  0  0  0  0
  8 10  1  0  0  0  0
  1 11  1  0  0  0  0
  1 12  1  0  0  0  0
  1 13  1  0  0  0  0
  3 14  1  0  0  0  0
  4 15  1  0  0  0  0
  6 16  1  0  0  0  0
  7 17  1  0  0  0  0
  8 18  1  0  0  0  0
  9 19  1  0  0  0  0
  9 20  1  0  0  0  0
  9 21  1  0  0  0  0
 10 22  1  0  0  0  0
 10 23  1  0  0  0  0
 10 24  1  0  0  0  0
M  END
