24
 xtb: 6.7.1 (edcfbbe)
C           -2.57760271991812       -0.69435803872869       -0.29773333399507
C           -1.21264934362356       -0.29534831258879        0.22269039929261
H           -1.23100323093507       -0.25255776434666        1.32515576503126
C           -0.74279915333542        1.05233030128730       -0.33266816344196
H           -0.77576582746047        1.02577503871890       -1.42862026880918
C            0.68880552418521        1.31799524315689        0.12925990445744
H            0.67978963724831        1.44494377981703        1.22513332484211
C            1.60527541626858        0.15188480382491       -0.21452247818662
H            1.67927156693649        0.05938297513828       -1.31096394189857
C            1.01906579983481       -1.14573131684787        0.33539092997996
H            0.97297431022271       -1.11854765463592        1.43407182520250
O           -0.29545494210824       -1.32196940028365       -0.20102816871677
O            1.77885952164274       -2.27280882994788       -0.00828102086493
O            2.90106119875183        0.31867200656286        0.36488428107144
O            1.23917856737575        2.48382547730282       -0.49368396413447
O           -1.60632953456254        2.12346321581453        0.06258455865265
O           -3.05210776068557       -1.90331812340213        0.30713932398089
H           -2.53335747763571       -0.79613695159101       -1.39177118884555
H           -3.30048703713377        0.08582406135298       -0.04872491355149
H            1.97507128625166       -2.23057581707469       -0.95620776962359
H            3.24842611010311        1.16390570811043        0.04944179111068
H            0.70907911371263        3.23961831016195       -0.20748607352629
H           -1.60908044091849        2.15741847128484        1.03056085189340
H           -2.43267291909186       -2.60496705686440        0.06707126918487
