22
 xtb: 6.7.1 (edcfbbe)
C           -4.41505417185042        0.00049865454027        0.00053278860760
C           -3.71736162131950       -0.45543392639947        1.11709839257489
C           -2.32568143094022       -0.45890614078301        1.11810310480830
C           -1.62440237531990       -0.00052549713423        0.00028204103940
C           -2.32557420761010        0.45824750327779       -1.11745564034622
C           -3.71724535699336        0.45580584663416       -1.11620986596344
C           -0.14162001669319       -0.00049387336497        0.00020200078743
C            0.60412506884214        1.17362268431046        0.16225513788288
C            1.99284283054522        1.20322042959435        0.16514275858807
C            2.66302457450605       -0.00000189135054       -0.00047916613403
C            1.99317879472038       -1.20346989120906       -0.16566846057172
C            0.60444063240055       -1.17436005124423       -0.16208396719599
Cl          -0.23490319407576       -2.69500908925180       -0.40042475179148
Cl           4.41492565012492        0.00034912059816       -0.00105293628507
Cl          -0.23559707822424        2.69398107080713        0.40118336834186
H           -5.50049348834362        0.00099664447069        0.00067132721139
H           -4.25678242555552       -0.80989429871450        1.98998815357510
H           -1.77887140595728       -0.81499268775681        1.98610166757559
H           -1.77864575935657        0.81398359423005       -1.98552218734413
H           -4.25655869964102        0.81070558524353       -1.98899075346950
H            2.53018685100433        2.13373591359629        0.29821160176656
H            2.53079624344326       -2.13379230296641       -0.29898700271305
