 xtb: 6.7.1 (edcfbbe)
          04032521553D

 17 17  0     0  0            999 V2000
    2.8858   -0.0683   -0.0099 C   0  0  0  0  0  0  0  0  0  0  0  0
    1.3913   -0.0109   -0.0103 C   0  0  0  0  0  0  0  0  0  0  0  0
    0.7115    1.1862    0.2060 C   0  0  0  0  0  0  0  0  0  0  0  0
   -0.6689    1.1955    0.2014 C   0  0  0  0  0  0  0  0  0  0  0  0
   -1.3554    0.0017   -0.0203 C   0  0  0  0  0  0  0  0  0  0  0  0
   -0.7131   -1.1413   -0.2274 N   0  0  0  0  0  0  0  0  0  0  0  0
    0.6112   -1.1395   -0.2212 C   0  0  0  0  0  0  0  0  0  0  0  0
   -2.8513   -0.0397   -0.0346 C   0  0  0  0  0  0  0  0  0  0  0  0
    3.2717    0.2156    0.9680 H   0  0  0  0  0  0  0  0  0  0  0  0
    3.2326   -1.0707   -0.2453 H   0  0  0  0  0  0  0  0  0  0  0  0
    3.2903    0.6269   -0.7434 H   0  0  0  0  0  0  0  0  0  0  0  0
    1.2662    2.0983    0.3754 H   0  0  0  0  0  0  0  0  0  0  0  0
   -1.2181    2.1100    0.3661 H   0  0  0  0  0  0  0  0  0  0  0  0
    1.0709   -2.1045   -0.3968 H   0  0  0  0  0  0  0  0  0  0  0  0
   -3.2451    0.3070    0.9186 H   0  0  0  0  0  0  0  0  0  0  0  0
   -3.2366    0.6109   -0.8172 H   0  0  0  0  0  0  0  0  0  0  0  0
   -3.1869   -1.0558   -0.2146 H   0  0  0  0  0  0  0  0  0  0  0  0
  1  2  1  0  0  0  0
  2  3  4  0  0  0  0
  3  4  4  0  0  0  0
  4  5  4  0  0  0  0
  5  6  4  0  0  0  0
  2  7  4  0  0  0  0
  6  7  4  0  0  0  0
  5  8  1  0  0  0  0
  1  9  1  0  0  0  0
  1 10  1  0  0  0  0
  1 11  1  0  0  0  0
  3 12  1  0  0  0  0
  4 13  1  0  0  0  0
  7 14  1  0  0  0  0
  8 15  1  0  0  0  0
  8 16  1  0  0  0  0
  8 17  1  0  0  0  0
M  END
