 xtb: 6.7.1 (edcfbbe)
          04052500003D

 17 17  0     0  0            999 V2000
   -2.7604   -0.8947   -0.0300 C   0  0  0  0  0  0  0  0  0  0  0  0
   -1.8804    0.2435    0.0251 N   0  0  0  0  0  0  0  0  0  0  0  0
   -0.5204    0.1686    0.0122 C   0  0  0  0  0  0  0  0  0  0  0  0
    0.1614   -1.0523   -0.0555 C   0  0  0  0  0  0  0  0  0  0  0  0
    1.5421   -1.0833   -0.0659 C   0  0  0  0  0  0  0  0  0  0  0  0
    2.2812    0.0862   -0.0099 C   0  0  0  0  0  0  0  0  0  0  0  0
    1.6158    1.3011    0.0575 C   0  0  0  0  0  0  0  0  0  0  0  0
    0.2385    1.3460    0.0686 C   0  0  0  0  0  0  0  0  0  0  0  0
   -3.7886   -0.5462   -0.0056 H   0  0  0  0  0  0  0  0  0  0  0  0
   -2.5972   -1.5605    0.8228 H   0  0  0  0  0  0  0  0  0  0  0  0
   -2.6075   -1.4671   -0.9499 H   0  0  0  0  0  0  0  0  0  0  0  0
   -2.2902    1.1591    0.0740 H   0  0  0  0  0  0  0  0  0  0  0  0
   -0.3901   -1.9777   -0.1001 H   0  0  0  0  0  0  0  0  0  0  0  0
    2.0488   -2.0368   -0.1187 H   0  0  0  0  0  0  0  0  0  0  0  0
    3.3603    0.0535   -0.0185 H   0  0  0  0  0  0  0  0  0  0  0  0
    2.1795    2.2224    0.1018 H   0  0  0  0  0  0  0  0  0  0  0  0
   -0.2709    2.2982    0.1213 H   0  0  0  0  0  0  0  0  0  0  0  0
  1  2  1  0  0  0  0
  2  3  1  0  0  0  0
  3  4  4  0  0  0  0
  4  5  4  0  0  0  0
  5  6  4  0  0  0  0
  6  7  4  0  0  0  0
  3  8  4  0  0  0  0
  7  8  4  0  0  0  0
  1  9  1  0  0  0  0
  1 10  1  0  0  0  0
  1 11  1  0  0  0  0
  2 12  1  0  0  0  0
  4 13  1  0  0  0  0
  5 14  1  0  0  0  0
  6 15  1  0  0  0  0
  7 16  1  0  0  0  0
  8 17  1  0  0  0  0
M  END
