24
 xtb: 6.7.1 (edcfbbe)
C           -2.57708839905071       -0.65166096792118       -0.27954587180789
C           -1.20592719535300       -0.27191637443122        0.24186398517766
H           -1.22180036079372       -0.23107657548703        1.34319826154239
C           -0.72053886125411        1.06835294625754       -0.30940352294145
H           -0.73648614099599        1.02943519606472       -1.41155714660937
C            0.70962212711936        1.31480930695230        0.16293402627008
H            0.70427750302666        1.43030838874985        1.25458603579611
C            1.61355849335398        0.14021200418259       -0.20376889467722
H            1.67095387669965        0.05174144121376       -1.30271257852768
C            1.01592857007299       -1.15269578012886        0.34493522333558
H            0.97318584435470       -1.12664210089401        1.44377286800725
O           -0.30383975124360       -1.30718369496946       -0.18866279986624
O            1.75767432219660       -2.29007697313824       -0.00295141841213
O            2.91667295083039        0.29531432343287        0.35789661114863
O            1.22806007728757        2.54896113293444       -0.34865843643871
O           -1.59849627530951        2.09059615847403        0.16733211723243
O           -3.05719068649816       -1.86583436169014        0.30849102784921
H           -2.53670543613914       -0.73668539853476       -1.37527299660315
H           -3.29427129168147        0.12907897208912       -0.01630607059956
H            1.95264075888672       -2.24899022460703       -0.95125201330842
H            3.22408839632709        1.18031400208740        0.11594194411219
H            1.23597074881457        2.48729029438230       -1.31572582576446
H           -1.20208155750459        2.93842032809854       -0.07858891310452
H           -2.44543568789434       -2.56860025456799        0.05229347350806
