9
CONF1
C -1.3812967958 -0.5888547678 -0.0000001477
S 0.0000013209 0.5922788729 -0.0000003832
C 1.3812940794 -0.5888616275 -0.0000001390
H -1.3278782731 -1.2013977725 0.8948125840
H -1.3281197528 -1.2011438301 -0.8950028992
H -2.2925793093 -0.0014189708 0.0002059179
H 1.3280948384 -1.2011620631 0.8950070985
H 2.2925480618 -0.0013808321 -0.0001545736
H 1.3279247845 -1.2013739383 -0.8948525200
