19
CONF1
C -2.7449619879 -0.2570434903 0.0000533603
C -2.3529757860 1.0982898399 0.0001036093
C -1.0195559032 1.4376539835 0.0001133758
C -0.0235580748 0.4323363265 0.0000793809
C -0.4144551662 -0.9452861626 0.0000410652
C -1.7975155652 -1.2533662558 0.0000217220
C 0.5768490576 -1.9575136809 0.0000287363
C 1.9086953844 -1.6174347618 0.0000452231
C 2.3132620079 -0.2676506668 0.0000678159
C 1.3669103536 0.7342450137 0.0000805947
O 1.7049296795 2.0646294098 0.0000971759
H -3.8003748122 -0.5106765559 0.0000380805
H -3.1092462175 1.8766991436 0.0001391383
H -0.7247589098 2.4807657503 0.0001507356
H -2.0959127792 -2.2979537914 -0.0000231763
H 0.2670571122 -2.9979496146 0.0000073858
H 2.6695874126 -2.3916837899 0.0000491392
H 3.3686594789 -0.0097177668 0.0000796400
H 2.6694991878 2.1420047811 0.0000567117
19
CONF2
C -2.7518704681 -0.2851722860 -0.0000609852
C -2.3760100955 1.0739109635 0.0000009678
C -1.0471113273 1.4286084356 0.0000294780
C -0.0301658970 0.4425036822 -0.0000039991
C -0.4106626362 -0.9416614081 -0.0000333860
C -1.7902296290 -1.2663822900 -0.0000719585
C 0.5832102384 -1.9493715853 -0.0000130078
C 1.9137655627 -1.6039282024 0.0000277674
C 2.3089752792 -0.2541843556 0.0000240772
C 1.3627591890 0.7481434932 -0.0000034693
O 1.8323666873 2.0402413779 -0.0000122494
H -3.8038261062 -0.5522570658 -0.0000945348
H -3.1392765787 1.8451590926 0.0000322450
H -0.7958466961 2.4849980236 0.0000929362
H -2.0731051135 -2.3152582519 -0.0001078904
H 0.2756715120 -2.9903958533 -0.0000272341
H 2.6782662166 -2.3744748492 0.0000513942
H 3.3604542921 0.0135431848 0.0000316309
H 1.1032526938 2.6738871322 -0.0002161350
