15
CONF1
C -2.9289138497 -0.0000475213 -0.0080094242
C -2.2392534448 1.2017746277 -0.0008817536
C -0.8555782041 1.2090045371 0.0133835891
C -0.1705508323 0.0000792126 0.0246660395
C -0.8554762323 -1.2089300114 0.0133589296
C -2.2391708709 -1.2018279043 -0.0008752665
C 1.3252449927 0.0000324753 0.0082421870
F 1.8707011148 1.0753210960 0.6084551526
F 1.8706285774 -1.0743151271 0.6102555500
F 1.8329333788 -0.0010601725 -1.2507061992
H -4.0072165683 -0.0000695610 -0.0195169929
H -2.7755788739 2.1367799237 -0.0072270331
H -0.3067206012 2.1377853344 0.0212195220
H -0.3065201405 -2.1376336742 0.0212290698
H -2.7754132549 -2.1368581772 -0.0070570531
