15
CONF1
C -2.9340370445 -0.0000409571 -0.0105621496
C -2.2392452199 1.2072996826 -0.0021719379
C -0.8484759902 1.2128695201 0.0172240407
C -0.1599766174 0.0000652586 0.0321485465
C -0.8483925189 -1.2127975618 0.0172234942
C -2.2391536889 -1.2073367334 -0.0021770826
C 1.3371289212 0.0000376739 0.0065822942
F 1.8682626781 1.0893163998 0.6134445287
F 1.8682249810 -1.0881604345 0.6154604914
F 1.8250635245 -0.0011770173 -1.2683825261
H -4.0192576489 -0.0000801005 -0.0224182781
H -2.7801091544 2.1478554718 -0.0085361729
H -0.3055678041 2.1518434679 0.0236295734
H -0.3053988934 -2.1517283131 0.0236277330
H -2.7799502238 -2.1479315109 -0.0085562492
