 xtb: 6.7.1 (edcfbbe)
          04042522073D

 17 17  0     0  0            999 V2000
    2.7491   -0.0110    0.7282 C   0  0  0  0  0  0  0  0  0  0  0  0
    1.9711   -0.0151   -0.5901 C   0  0  0  0  0  0  0  0  0  0  0  0
    0.4958    0.0195   -0.3260 C   0  0  0  0  0  0  0  0  0  0  0  0
   -0.1904    1.2194   -0.1745 C   0  0  0  0  0  0  0  0  0  0  0  0
   -1.5455    1.1958    0.1095 C   0  0  0  0  0  0  0  0  0  0  0  0
   -2.1701   -0.0353    0.2356 C   0  0  0  0  0  0  0  0  0  0  0  0
   -1.5335   -1.1882    0.0962 N   0  0  0  0  0  0  0  0  0  0  0  0
   -0.2392   -1.1524   -0.1756 C   0  0  0  0  0  0  0  0  0  0  0  0
    2.4807   -0.8777    1.3279 H   0  0  0  0  0  0  0  0  0  0  0  0
    2.5214    0.8853    1.3006 H   0  0  0  0  0  0  0  0  0  0  0  0
    3.8179   -0.0386    0.5343 H   0  0  0  0  0  0  0  0  0  0  0  0
    2.2216   -0.9150   -1.1539 H   0  0  0  0  0  0  0  0  0  0  0  0
    2.2583    0.8561   -1.1813 H   0  0  0  0  0  0  0  0  0  0  0  0
    0.3322    2.1592   -0.2817 H   0  0  0  0  0  0  0  0  0  0  0  0
   -2.1060    2.1092    0.2299 H   0  0  0  0  0  0  0  0  0  0  0  0
   -3.2262   -0.1108    0.4565 H   0  0  0  0  0  0  0  0  0  0  0  0
    0.2370   -2.1189   -0.2827 H   0  0  0  0  0  0  0  0  0  0  0  0
  1  2  1  0  0  0  0
  2  3  1  0  0  0  0
  3  4  4  0  0  0  0
  4  5  4  0  0  0  0
  5  6  4  0  0  0  0
  6  7  4  0  0  0  0
  3  8  4  0  0  0  0
  7  8  4  0  0  0  0
  1  9  1  0  0  0  0
  1 10  1  0  0  0  0
  1 11  1  0  0  0  0
  2 12  1  0  0  0  0
  2 13  1  0  0  0  0
  4 14  1  0  0  0  0
  5 15  1  0  0  0  0
  6 16  1  0  0  0  0
  8 17  1  0  0  0  0
M  END
