 xtb: 6.7.1 (edcfbbe)
          04052519173D

 23 23  0     0  0            999 V2000
   -2.6375   -0.4580    1.0429 C   0  0  0  0  0  0  0  0  0  0  0  0
   -1.7749    0.1195   -0.0435 C   0  0  0  0  0  0  0  0  0  0  0  0
   -2.2292    0.4141   -1.1325 O   0  0  0  0  0  0  0  0  0  0  0  0
   -0.3086    0.2901    0.2941 C   0  0  0  0  0  0  0  0  0  0  0  0
    0.4400    1.0174   -0.8232 C   0  0  0  0  0  0  0  0  0  0  0  0
    1.9140    1.1834   -0.4702 C   0  0  0  0  0  0  0  0  0  0  0  0
    2.5560   -0.1764   -0.2130 C   0  0  0  0  0  0  0  0  0  0  0  0
    1.8167   -0.9068    0.9034 C   0  0  0  0  0  0  0  0  0  0  0  0
    0.3401   -1.0783    0.5561 C   0  0  0  0  0  0  0  0  0  0  0  0
   -2.2843   -0.1724    2.0277 H   0  0  0  0  0  0  0  0  0  0  0  0
   -3.6678   -0.1437    0.8988 H   0  0  0  0  0  0  0  0  0  0  0  0
   -2.6059   -1.5432    0.9605 H   0  0  0  0  0  0  0  0  0  0  0  0
   -0.2467    0.8822    1.2138 H   0  0  0  0  0  0  0  0  0  0  0  0
    0.3402    0.4434   -1.7473 H   0  0  0  0  0  0  0  0  0  0  0  0
   -0.0231    1.9914   -0.9958 H   0  0  0  0  0  0  0  0  0  0  0  0
    2.4305    1.6930   -1.2853 H   0  0  0  0  0  0  0  0  0  0  0  0
    2.0052    1.8040    0.4241 H   0  0  0  0  0  0  0  0  0  0  0  0
    2.5153   -0.7733   -1.1267 H   0  0  0  0  0  0  0  0  0  0  0  0
    3.6053   -0.0476    0.0579 H   0  0  0  0  0  0  0  0  0  0  0  0
    2.2662   -1.8875    1.0677 H   0  0  0  0  0  0  0  0  0  0  0  0
    1.9061   -0.3354    1.8297 H   0  0  0  0  0  0  0  0  0  0  0  0
    0.2452   -1.6921   -0.3425 H   0  0  0  0  0  0  0  0  0  0  0  0
   -0.1702   -1.5868    1.3740 H   0  0  0  0  0  0  0  0  0  0  0  0
  1  2  1  0  0  0  0
  2  3  2  0  0  0  0
  2  4  1  0  0  0  0
  4  5  1  0  0  0  0
  5  6  1  0  0  0  0
  6  7  1  0  0  0  0
  7  8  1  0  0  0  0
  4  9  1  0  0  0  0
  8  9  1  0  0  0  0
  1 10  1  0  0  0  0
  1 11  1  0  0  0  0
  1 12  1  0  0  0  0
  4 13  1  0  0  0  0
  5 14  1  0  0  0  0
  5 15  1  0  0  0  0
  6 16  1  0  0  0  0
  6 17  1  0  0  0  0
  7 18  1  0  0  0  0
  7 19  1  0  0  0  0
  8 20  1  0  0  0  0
  8 21  1  0  0  0  0
  9 22  1  0  0  0  0
  9 23  1  0  0  0  0
M  END
