 xtb: 6.7.1 (edcfbbe)
          04032521503D

 21 21  0     0  0            999 V2000
    2.4841   -0.0000   -0.0799 C   0  0  0  0  0  0  0  0  0  0  0  0
    1.0143   -0.0001    0.3320 C   0  0  0  0  0  0  0  0  0  0  0  0
    0.3012    1.2494   -0.1875 C   0  0  0  0  0  0  0  0  0  0  0  0
   -1.1686    1.2520    0.2232 C   0  0  0  0  0  0  0  0  0  0  0  0
   -1.8706   -0.0000   -0.2938 C   0  0  0  0  0  0  0  0  0  0  0  0
   -1.1686   -1.2519    0.2235 C   0  0  0  0  0  0  0  0  0  0  0  0
    0.3010   -1.2494   -0.1878 C   0  0  0  0  0  0  0  0  0  0  0  0
    2.9892   -0.8827    0.3057 H   0  0  0  0  0  0  0  0  0  0  0  0
    2.5737    0.0004   -1.1643 H   0  0  0  0  0  0  0  0  0  0  0  0
    2.9894    0.8824    0.3062 H   0  0  0  0  0  0  0  0  0  0  0  0
    0.9584   -0.0002    1.4270 H   0  0  0  0  0  0  0  0  0  0  0  0
    0.7951    2.1432    0.2000 H   0  0  0  0  0  0  0  0  0  0  0  0
    0.3724    1.2746   -1.2776 H   0  0  0  0  0  0  0  0  0  0  0  0
   -1.2396    1.2818    1.3132 H   0  0  0  0  0  0  0  0  0  0  0  0
   -1.6613    2.1443   -0.1686 H   0  0  0  0  0  0  0  0  0  0  0  0
   -2.9153   -0.0000    0.0236 H   0  0  0  0  0  0  0  0  0  0  0  0
   -1.8517   -0.0001   -1.3861 H   0  0  0  0  0  0  0  0  0  0  0  0
   -1.2391   -1.2812    1.3134 H   0  0  0  0  0  0  0  0  0  0  0  0
   -1.6614   -2.1444   -0.1678 H   0  0  0  0  0  0  0  0  0  0  0  0
    0.7951   -2.1434    0.1992 H   0  0  0  0  0  0  0  0  0  0  0  0
    0.3719   -1.2741   -1.2779 H   0  0  0  0  0  0  0  0  0  0  0  0
  1  2  1  0  0  0  0
  2  3  1  0  0  0  0
  3  4  1  0  0  0  0
  4  5  1  0  0  0  0
  5  6  1  0  0  0  0
  2  7  1  0  0  0  0
  6  7  1  0  0  0  0
  1  8  1  0  0  0  0
  1  9  1  0  0  0  0
  1 10  1  0  0  0  0
  2 11  1  0  0  0  0
  3 12  1  0  0  0  0
  3 13  1  0  0  0  0
  4 14  1  0  0  0  0
  4 15  1  0  0  0  0
  5 16  1  0  0  0  0
  5 17  1  0  0  0  0
  6 18  1  0  0  0  0
  6 19  1  0  0  0  0
  7 20  1  0  0  0  0
  7 21  1  0  0  0  0
M  END
