 xtb: 6.7.1 (edcfbbe)
          04052509003D

 22 23  0     0  0            999 V2000
   -1.2628    1.2592    0.7261 C   0  0  0  0  0  0  0  0  0  0  0  0
   -0.5212    0.3152    0.0293 C   0  0  0  0  0  0  0  0  0  0  0  0
   -1.1742   -0.7486   -0.5923 C   0  0  0  0  0  0  0  0  0  0  0  0
   -2.5589   -0.8712   -0.5043 C   0  0  0  0  0  0  0  0  0  0  0  0
   -3.2978    0.0749    0.2033 C   0  0  0  0  0  0  0  0  0  0  0  0
   -2.6403    1.1415    0.8144 C   0  0  0  0  0  0  0  0  0  0  0  0
   -3.5486    2.3140    1.6825 Cl  0  0  0  0  0  0  0  0  0  0  0  0
   -5.0064   -0.0784    0.3130 Cl  0  0  0  0  0  0  0  0  0  0  0  0
   -3.3600   -2.1863   -1.2689 Cl  0  0  0  0  0  0  0  0  0  0  0  0
   -0.2758   -1.9056   -1.4936 Cl  0  0  0  0  0  0  0  0  0  0  0  0
    0.9503    0.4421   -0.0635 C   0  0  0  0  0  0  0  0  0  0  0  0
    1.5382    1.4459   -0.8331 C   0  0  0  0  0  0  0  0  0  0  0  0
    2.9147    1.5641   -0.9376 C   0  0  0  0  0  0  0  0  0  0  0  0
    3.7264    0.6667   -0.2620 C   0  0  0  0  0  0  0  0  0  0  0  0
    3.1696   -0.3450    0.5197 C   0  0  0  0  0  0  0  0  0  0  0  0
    1.7837   -0.4472    0.6130 C   0  0  0  0  0  0  0  0  0  0  0  0
    1.0871   -1.6768    1.5930 Cl  0  0  0  0  0  0  0  0  0  0  0  0
    4.1783   -1.4571    1.3606 Cl  0  0  0  0  0  0  0  0  0  0  0  0
    5.4343    0.7996   -0.3880 Cl  0  0  0  0  0  0  0  0  0  0  0  0
    0.5273    2.5411   -1.6919 Cl  0  0  0  0  0  0  0  0  0  0  0  0
   -0.7641    2.0848    1.2069 H   0  0  0  0  0  0  0  0  0  0  0  0
    3.3533    2.3425   -1.5396 H   0  0  0  0  0  0  0  0  0  0  0  0
  1  2  4  0  0  0  0
  2  3  4  0  0  0  0
  3  4  4  0  0  0  0
  4  5  4  0  0  0  0
  1  6  4  0  0  0  0
  5  6  4  0  0  0  0
  6  7  1  0  0  0  0
  5  8  1  0  0  0  0
  4  9  1  0  0  0  0
  3 10  1  0  0  0  0
  2 11  1  0  0  0  0
 11 12  4  0  0  0  0
 12 13  4  0  0  0  0
 13 14  4  0  0  0  0
 14 15  4  0  0  0  0
 11 16  4  0  0  0  0
 15 16  4  0  0  0  0
 16 17  1  0  0  0  0
 15 18  1  0  0  0  0
 14 19  1  0  0  0  0
 12 20  1  0  0  0  0
  1 21  1  0  0  0  0
 13 22  1  0  0  0  0
M  END
