 xtb: 6.7.1 (edcfbbe)
          04042523583D

 17 17  0     0  0            999 V2000
   -2.7364   -0.1786   -0.6882 C   0  0  0  0  0  0  0  0  0  0  0  0
   -1.9311    0.1998    0.5568 C   0  0  0  0  0  0  0  0  0  0  0  0
   -0.4580    0.0790    0.2965 C   0  0  0  0  0  0  0  0  0  0  0  0
    0.1601   -1.1688    0.2333 C   0  0  0  0  0  0  0  0  0  0  0  0
    1.5145   -1.2352   -0.0376 C   0  0  0  0  0  0  0  0  0  0  0  0
    2.2136   -0.0535   -0.2365 C   0  0  0  0  0  0  0  0  0  0  0  0
    1.5127    1.1377   -0.1499 C   0  0  0  0  0  0  0  0  0  0  0  0
    0.2162    1.2083    0.1085 N   0  0  0  0  0  0  0  0  0  0  0  0
   -2.5256   -1.2034   -0.9850 H   0  0  0  0  0  0  0  0  0  0  0  0
   -2.4798    0.4791   -1.5150 H   0  0  0  0  0  0  0  0  0  0  0  0
   -3.8002   -0.0859   -0.4870 H   0  0  0  0  0  0  0  0  0  0  0  0
   -2.2089   -0.4587    1.3819 H   0  0  0  0  0  0  0  0  0  0  0  0
   -2.1511    1.2299    0.8349 H   0  0  0  0  0  0  0  0  0  0  0  0
   -0.4170   -2.0653    0.3993 H   0  0  0  0  0  0  0  0  0  0  0  0
    2.0188   -2.1888   -0.0912 H   0  0  0  0  0  0  0  0  0  0  0  0
    3.2704   -0.0560   -0.4495 H   0  0  0  0  0  0  0  0  0  0  0  0
    2.0069    2.0900   -0.2920 H   0  0  0  0  0  0  0  0  0  0  0  0
  1  2  1  0  0  0  0
  2  3  1  0  0  0  0
  3  4  4  0  0  0  0
  4  5  4  0  0  0  0
  5  6  4  0  0  0  0
  6  7  4  0  0  0  0
  3  8  4  0  0  0  0
  7  8  4  0  0  0  0
  1  9  1  0  0  0  0
  1 10  1  0  0  0  0
  1 11  1  0  0  0  0
  2 12  1  0  0  0  0
  2 13  1  0  0  0  0
  4 14  1  0  0  0  0
  5 15  1  0  0  0  0
  6 16  1  0  0  0  0
  7 17  1  0  0  0  0
M  END
