24
 xtb: 6.7.1 (edcfbbe)
C           -2.54090599065648       -0.96093951105121        0.35344979678783
C           -1.12538306906598       -0.47069282950622        0.58982365526265
H           -0.95667850752789       -0.41946050260409        1.67841352019431
C           -0.83274990882350        0.90063434811681       -0.02894921995934
H           -1.03192387794682        0.86467484027859       -1.10818058719636
C            0.62837245658146        1.25497310975319        0.20133047229609
H            0.79315945729146        1.37778237582581        1.28408719513318
C            1.54471408188695        0.15222377031642       -0.31049652951815
H            1.44661313793942        0.07397045887168       -1.40475477176114
C            1.13677008752969       -1.18183693223622        0.29941096183258
H            1.27290965765692       -1.16801472920822        1.39351421837514
O           -0.23884038130247       -1.44195474774411        0.00066015237818
O            1.90167400255264       -2.19603035287436       -0.29465915269227
O            2.90349017432849        0.39973003342631        0.05728676642154
O            1.00025912035801        2.45539380754341       -0.48678973149434
O           -1.61530681380804        1.92754049562182        0.59346269194583
O           -2.89489430080664       -1.01165228063129       -1.03373248401110
H           -3.24305526425824       -0.27291623940120        0.83312384916882
H           -2.65616289246220       -1.94837627480981        0.82031339565019
H            1.84653259617141       -2.98164973402682        0.26686640614905
H            3.13570127484623        1.27259921306570       -0.28781104241125
H            0.50459688662407        3.18105072231484       -0.08433416561137
H           -2.48946783893300        1.92777497124292        0.18324292990099
H           -2.30981296088997       -1.65339839629066       -1.45767124317282
