 xtb: 6.7.1 (edcfbbe)
          04062511353D

 27 27  0     0  0            999 V2000
    3.3019   -0.3182    0.8939 C   0  0  0  0  0  0  0  0  0  0  0  0
    1.9389   -0.1750    0.3135 C   0  0  0  0  0  0  0  0  0  0  0  0
    1.4278    1.0198   -0.0236 C   0  0  0  0  0  0  0  0  0  0  0  0
    0.0922    1.2134   -0.5471 C   0  0  0  0  0  0  0  0  0  0  0  0
   -0.3588    2.3408   -0.7488 O   0  0  0  0  0  0  0  0  0  0  0  0
   -0.7644   -0.0097   -0.8192 C   0  0  0  0  0  0  0  0  0  0  0  0
   -1.2260    0.1709   -1.7986 H   0  0  0  0  0  0  0  0  0  0  0  0
    0.0651   -1.2919   -0.9190 C   0  0  0  0  0  0  0  0  0  0  0  0
    1.1507   -1.4302    0.1451 C   0  0  0  0  0  0  0  0  0  0  0  0
   -1.9476   -0.0090    0.1828 C   0  0  0  0  0  0  0  0  0  0  0  0
   -3.0440   -0.9806   -0.2488 C   0  0  0  0  0  0  0  0  0  0  0  0
   -1.5371   -0.2883    1.6267 C   0  0  0  0  0  0  0  0  0  0  0  0
    3.9426   -0.8506    0.1922 H   0  0  0  0  0  0  0  0  0  0  0  0
    3.2588   -0.9084    1.8072 H   0  0  0  0  0  0  0  0  0  0  0  0
    3.7462    0.6490    1.1094 H   0  0  0  0  0  0  0  0  0  0  0  0
    1.9997    1.9277    0.1159 H   0  0  0  0  0  0  0  0  0  0  0  0
   -0.5953   -2.1579   -0.8886 H   0  0  0  0  0  0  0  0  0  0  0  0
    0.5532   -1.2871   -1.8969 H   0  0  0  0  0  0  0  0  0  0  0  0
    0.7172   -1.6857    1.1140 H   0  0  0  0  0  0  0  0  0  0  0  0
    1.8204   -2.2483   -0.1268 H   0  0  0  0  0  0  0  0  0  0  0  0
   -2.3581    1.0082    0.1394 H   0  0  0  0  0  0  0  0  0  0  0  0
   -3.3647   -0.7755   -1.2672 H   0  0  0  0  0  0  0  0  0  0  0  0
   -3.9039   -0.8776    0.4084 H   0  0  0  0  0  0  0  0  0  0  0  0
   -2.6979   -2.0095   -0.1934 H   0  0  0  0  0  0  0  0  0  0  0  0
   -2.3639   -0.0465    2.2914 H   0  0  0  0  0  0  0  0  0  0  0  0
   -0.6836    0.3220    1.9128 H   0  0  0  0  0  0  0  0  0  0  0  0
   -1.2962   -1.3385    1.7643 H   0  0  0  0  0  0  0  0  0  0  0  0
  1  2  1  0  0  0  0
  2  3  2  0  0  0  0
  3  4  1  0  0  0  0
  4  5  2  0  0  0  0
  4  6  1  0  0  0  0
  6  7  1  0  0  0  0
  6  8  1  0  0  0  0
  2  9  1  0  0  0  0
  8  9  1  0  0  0  0
  6 10  1  0  0  0  0
 10 11  1  0  0  0  0
 10 12  1  0  0  0  0
  1 13  1  0  0  0  0
  1 14  1  0  0  0  0
  1 15  1  0  0  0  0
  3 16  1  0  0  0  0
  8 17  1  0  0  0  0
  8 18  1  0  0  0  0
  9 19  1  0  0  0  0
  9 20  1  0  0  0  0
 10 21  1  0  0  0  0
 11 22  1  0  0  0  0
 11 23  1  0  0  0  0
 11 24  1  0  0  0  0
 12 25  1  0  0  0  0
 12 26  1  0  0  0  0
 12 27  1  0  0  0  0
M  END
