 xtb: 6.7.1 (edcfbbe)
          04062518003D

 24 24  0     0  0            999 V2000
   -2.5510   -0.6737   -0.3796 C   0  0  0  0  0  0  0  0  0  0  0  0
   -1.1777   -0.3192    0.2054 C   0  0  0  0  0  0  0  0  0  0  0  0
   -1.2458   -0.2655    1.3039 H   0  0  0  0  0  0  0  0  0  0  0  0
   -0.7068    1.0498   -0.3107 C   0  0  0  0  0  0  0  0  0  0  0  0
   -0.7150    1.0301   -1.4131 H   0  0  0  0  0  0  0  0  0  0  0  0
    0.7299    1.3233    0.1749 C   0  0  0  0  0  0  0  0  0  0  0  0
    0.7127    1.4135    1.2688 H   0  0  0  0  0  0  0  0  0  0  0  0
    1.6390    0.1541   -0.2320 C   0  0  0  0  0  0  0  0  0  0  0  0
    1.6528    0.0678   -1.3254 H   0  0  0  0  0  0  0  0  0  0  0  0
    1.0361   -1.1495    0.3494 C   0  0  0  0  0  0  0  0  0  0  0  0
    1.0040   -1.0752    1.4507 H   0  0  0  0  0  0  0  0  0  0  0  0
   -0.2647   -1.3335   -0.1651 O   0  0  0  0  0  0  0  0  0  0  0  0
    1.7865   -2.2685    0.0670 O   0  0  0  0  0  0  0  0  0  0  0  0
    2.9761    0.3439    0.1369 O   0  0  0  0  0  0  0  0  0  0  0  0
    1.1852    2.5712   -0.2861 O   0  0  0  0  0  0  0  0  0  0  0  0
   -1.5917    2.0320    0.1612 O   0  0  0  0  0  0  0  0  0  0  0  0
   -3.1638   -1.7696    0.2437 O   0  0  0  0  0  0  0  0  0  0  0  0
   -2.4190   -0.9626   -1.4237 H   0  0  0  0  0  0  0  0  0  0  0  0
   -3.1801    0.2221   -0.3215 H   0  0  0  0  0  0  0  0  0  0  0  0
    1.7020   -2.4936   -0.8726 H   0  0  0  0  0  0  0  0  0  0  0  0
    3.0625    0.3755    1.1001 H   0  0  0  0  0  0  0  0  0  0  0  0
    1.5107    2.4946   -1.1944 H   0  0  0  0  0  0  0  0  0  0  0  0
   -1.1690    2.8999    0.0542 H   0  0  0  0  0  0  0  0  0  0  0  0
   -3.3576   -1.5536    1.1669 H   0  0  0  0  0  0  0  0  0  0  0  0
  1  2  1  0  0  0  0
  2  3  1  0  0  0  0
  2  4  1  0  0  0  0
  4  5  1  0  0  0  0
  4  6  1  0  0  0  0
  6  7  1  0  0  0  0
  6  8  1  0  0  0  0
  8  9  1  0  0  0  0
  8 10  1  0  0  0  0
 10 11  1  0  0  0  0
  2 12  1  0  0  0  0
 10 12  1  0  0  0  0
 10 13  1  0  0  0  0
  8 14  1  0  0  0  0
  6 15  1  0  0  0  0
  4 16  1  0  0  0  0
  1 17  1  0  0  0  0
  1 18  1  0  0  0  0
  1 19  1  0  0  0  0
 13 20  1  0  0  0  0
 14 21  1  0  0  0  0
 15 22  1  0  0  0  0
 16 23  1  0  0  0  0
 17 24  1  0  0  0  0
M  END
