 xtb: 6.7.1 (edcfbbe)
          04062508313D

 24 24  0     0  0            999 V2000
   -3.4905   -0.4528   -0.2947 C   0  0  0  0  0  0  0  0  0  0  0  0
   -2.2221    0.0795   -0.6930 O   0  0  0  0  0  0  0  0  0  0  0  0
   -1.2020    0.0268    0.1558 C   0  0  0  0  0  0  0  0  0  0  0  0
   -1.2782   -0.4425    1.2720 O   0  0  0  0  0  0  0  0  0  0  0  0
    0.0548    0.5826   -0.4738 C   0  0  0  0  0  0  0  0  0  0  0  0
    0.8209   -0.6008   -1.1061 C   0  0  0  0  0  0  0  0  0  0  0  0
    1.7275   -1.2484   -0.0672 C   0  0  0  0  0  0  0  0  0  0  0  0
    2.8544   -0.2864    0.3307 C   0  0  0  0  0  0  0  0  0  0  0  0
    2.3982    1.1747    0.2416 C   0  0  0  0  0  0  0  0  0  0  0  0
    0.9164    1.2974    0.5771 C   0  0  0  0  0  0  0  0  0  0  0  0
   -3.7782   -1.2017   -1.0297 H   0  0  0  0  0  0  0  0  0  0  0  0
   -4.2077    0.3659   -0.2870 H   0  0  0  0  0  0  0  0  0  0  0  0
   -3.4092   -0.8975    0.6977 H   0  0  0  0  0  0  0  0  0  0  0  0
   -0.2543    1.2668   -1.2672 H   0  0  0  0  0  0  0  0  0  0  0  0
    0.1099   -1.3278   -1.5034 H   0  0  0  0  0  0  0  0  0  0  0  0
    1.4221   -0.2351   -1.9384 H   0  0  0  0  0  0  0  0  0  0  0  0
    1.1249   -1.5065    0.8060 H   0  0  0  0  0  0  0  0  0  0  0  0
    2.1490   -2.1736   -0.4617 H   0  0  0  0  0  0  0  0  0  0  0  0
    3.1728   -0.5134    1.3489 H   0  0  0  0  0  0  0  0  0  0  0  0
    3.7151   -0.4329   -0.3234 H   0  0  0  0  0  0  0  0  0  0  0  0
    2.9817    1.7868    0.9299 H   0  0  0  0  0  0  0  0  0  0  0  0
    2.5655    1.5616   -0.7646 H   0  0  0  0  0  0  0  0  0  0  0  0
    0.7270    0.8452    1.5531 H   0  0  0  0  0  0  0  0  0  0  0  0
    0.6264    2.3473    0.6349 H   0  0  0  0  0  0  0  0  0  0  0  0
  1  2  1  0  0  0  0
  2  3  1  0  0  0  0
  3  4  2  0  0  0  0
  3  5  1  0  0  0  0
  5  6  1  0  0  0  0
  6  7  1  0  0  0  0
  7  8  1  0  0  0  0
  8  9  1  0  0  0  0
  5 10  1  0  0  0  0
  9 10  1  0  0  0  0
  1 11  1  0  0  0  0
  1 12  1  0  0  0  0
  1 13  1  0  0  0  0
  5 14  1  0  0  0  0
  6 15  1  0  0  0  0
  6 16  1  0  0  0  0
  7 17  1  0  0  0  0
  7 18  1  0  0  0  0
  8 19  1  0  0  0  0
  8 20  1  0  0  0  0
  9 21  1  0  0  0  0
  9 22  1  0  0  0  0
 10 23  1  0  0  0  0
 10 24  1  0  0  0  0
M  END
