 xtb: 6.7.1 (edcfbbe)
          04032522173D

 12 11  0     0  0            999 V2000
   -1.9581   -0.1074   -0.0286 C   0  0  0  0  0  0  0  0  0  0  0  0
   -0.5770    0.5310    0.0257 C   0  0  0  0  0  0  0  0  0  0  0  0
    0.5330   -0.5145   -0.0252 C   0  0  0  0  0  0  0  0  0  0  0  0
    1.7825    0.1485    0.0294 O   0  0  0  0  0  0  0  0  0  0  0  0
   -2.7265    0.6594    0.0098 H   0  0  0  0  0  0  0  0  0  0  0  0
   -2.0804   -0.6741   -0.9486 H   0  0  0  0  0  0  0  0  0  0  0  0
   -2.0999   -0.7817    0.8126 H   0  0  0  0  0  0  0  0  0  0  0  0
   -0.4622    1.1084    0.9445 H   0  0  0  0  0  0  0  0  0  0  0  0
   -0.4424    1.2153   -0.8137 H   0  0  0  0  0  0  0  0  0  0  0  0
    0.4309   -1.2027    0.8252 H   0  0  0  0  0  0  0  0  0  0  0  0
    0.4511   -1.0946   -0.9547 H   0  0  0  0  0  0  0  0  0  0  0  0
    2.4940   -0.5040   -0.0065 H   0  0  0  0  0  0  0  0  0  0  0  0
  1  2  1  0  0  0  0
  2  3  1  0  0  0  0
  3  4  1  0  0  0  0
  1  5  1  0  0  0  0
  1  6  1  0  0  0  0
  1  7  1  0  0  0  0
  2  8  1  0  0  0  0
  2  9  1  0  0  0  0
  3 10  1  0  0  0  0
  3 11  1  0  0  0  0
  4 12  1  0  0  0  0
M  END
