 xtb: 6.7.1 (edcfbbe)
          04062518003D

 24 24  0     0  0            999 V2000
   -2.0943   -1.0399   -0.2009 C   0  0  0  0  0  0  0  0  0  0  0  0
   -1.1029   -0.4247    0.8111 C   0  0  0  0  0  0  0  0  0  0  0  0
   -1.5925   -0.4463    1.7916 H   0  0  0  0  0  0  0  0  0  0  0  0
   -0.7651    1.0503    0.5111 C   0  0  0  0  0  0  0  0  0  0  0  0
   -1.6490    1.4995    0.0443 H   0  0  0  0  0  0  0  0  0  0  0  0
    0.4526    1.2559   -0.4184 C   0  0  0  0  0  0  0  0  0  0  0  0
    0.8102    2.2822   -0.2270 H   0  0  0  0  0  0  0  0  0  0  0  0
    1.5964    0.3094   -0.0289 C   0  0  0  0  0  0  0  0  0  0  0  0
    2.3396    0.3377   -0.8367 H   0  0  0  0  0  0  0  0  0  0  0  0
    1.0968   -1.1410    0.1010 C   0  0  0  0  0  0  0  0  0  0  0  0
    1.8935   -1.7449    0.5628 H   0  0  0  0  0  0  0  0  0  0  0  0
    0.0432   -1.2519    1.0194 O   0  0  0  0  0  0  0  0  0  0  0  0
    0.7757   -1.6279   -1.1648 O   0  0  0  0  0  0  0  0  0  0  0  0
    2.1192    0.7674    1.1920 O   0  0  0  0  0  0  0  0  0  0  0  0
    0.1997    1.0757   -1.7835 O   0  0  0  0  0  0  0  0  0  0  0  0
   -0.5658    1.7683    1.7074 O   0  0  0  0  0  0  0  0  0  0  0  0
   -1.8976   -0.6818   -1.5420 O   0  0  0  0  0  0  0  0  0  0  0  0
   -3.1000   -0.6946    0.0492 H   0  0  0  0  0  0  0  0  0  0  0  0
   -2.0590   -2.1314   -0.0762 H   0  0  0  0  0  0  0  0  0  0  0  0
    0.6687   -2.5912   -1.1346 H   0  0  0  0  0  0  0  0  0  0  0  0
    2.9286    0.2866    1.4160 H   0  0  0  0  0  0  0  0  0  0  0  0
   -0.5353    1.6415   -2.0599 H   0  0  0  0  0  0  0  0  0  0  0  0
    0.2871    1.5035    2.0891 H   0  0  0  0  0  0  0  0  0  0  0  0
   -0.9668   -0.8514   -1.7839 H   0  0  0  0  0  0  0  0  0  0  0  0
  1  2  1  0  0  0  0
  2  3  1  0  0  0  0
  2  4  1  0  0  0  0
  4  5  1  0  0  0  0
  4  6  1  0  0  0  0
  6  7  1  0  0  0  0
  6  8  1  0  0  0  0
  8  9  1  0  0  0  0
  8 10  1  0  0  0  0
 10 11  1  0  0  0  0
  2 12  1  0  0  0  0
 10 12  1  0  0  0  0
 10 13  1  0  0  0  0
  8 14  1  0  0  0  0
  6 15  1  0  0  0  0
  4 16  1  0  0  0  0
  1 17  1  0  0  0  0
  1 18  1  0  0  0  0
  1 19  1  0  0  0  0
 13 20  1  0  0  0  0
 14 21  1  0  0  0  0
 15 22  1  0  0  0  0
 16 23  1  0  0  0  0
 17 24  1  0  0  0  0
M  END
