 xtb: 6.7.1 (edcfbbe)
          04062520053D

 27 27  0     0  0            999 V2000
   -2.8644    1.2523    0.7067 C   0  0  0  0  0  0  0  0  0  0  0  0
   -1.7035    0.5676    0.0626 C   0  0  0  0  0  0  0  0  0  0  0  0
   -0.8839    1.1243   -0.8191 C   0  0  0  0  0  0  0  0  0  0  0  0
    0.2333    0.3314   -1.4163 C   0  0  0  0  0  0  0  0  0  0  0  0
    0.9964   -0.5088   -0.3668 C   0  0  0  0  0  0  0  0  0  0  0  0
    1.3939   -1.3861   -0.8847 H   0  0  0  0  0  0  0  0  0  0  0  0
    0.0774   -0.9877    0.7788 C   0  0  0  0  0  0  0  0  0  0  0  0
   -1.4193   -0.8627    0.4553 C   0  0  0  0  0  0  0  0  0  0  0  0
   -1.9956   -1.1204    1.3593 H   0  0  0  0  0  0  0  0  0  0  0  0
   -1.8270   -1.7149   -0.6050 O   0  0  0  0  0  0  0  0  0  0  0  0
    2.1665    0.2554    0.2156 C   0  0  0  0  0  0  0  0  0  0  0  0
    2.0586    1.5120    0.6166 C   0  0  0  0  0  0  0  0  0  0  0  0
    3.4436   -0.5191    0.3347 C   0  0  0  0  0  0  0  0  0  0  0  0
   -2.7356    1.2770    1.7886 H   0  0  0  0  0  0  0  0  0  0  0  0
   -3.7822    0.7070    0.4909 H   0  0  0  0  0  0  0  0  0  0  0  0
   -2.9621    2.2698    0.3387 H   0  0  0  0  0  0  0  0  0  0  0  0
   -1.0231    2.1435   -1.1496 H   0  0  0  0  0  0  0  0  0  0  0  0
   -0.1995   -0.3530   -2.1510 H   0  0  0  0  0  0  0  0  0  0  0  0
    0.9361    0.9832   -1.9358 H   0  0  0  0  0  0  0  0  0  0  0  0
    0.3107   -2.0232    1.0344 H   0  0  0  0  0  0  0  0  0  0  0  0
    0.2588   -0.3776    1.6656 H   0  0  0  0  0  0  0  0  0  0  0  0
   -1.5934   -2.6257   -0.3804 H   0  0  0  0  0  0  0  0  0  0  0  0
    2.8905    2.0454    1.0449 H   0  0  0  0  0  0  0  0  0  0  0  0
    1.1328    2.0557    0.5321 H   0  0  0  0  0  0  0  0  0  0  0  0
    4.2192    0.0753    0.8096 H   0  0  0  0  0  0  0  0  0  0  0  0
    3.2796   -1.4206    0.9235 H   0  0  0  0  0  0  0  0  0  0  0  0
    3.7899   -0.8241   -0.6522 H   0  0  0  0  0  0  0  0  0  0  0  0
  1  2  1  0  0  0  0
  2  3  2  0  0  0  0
  3  4  1  0  0  0  0
  4  5  1  0  0  0  0
  5  6  1  0  0  0  0
  5  7  1  0  0  0  0
  2  8  1  0  0  0  0
  7  8  1  0  0  0  0
  8  9  1  0  0  0  0
  8 10  1  0  0  0  0
  5 11  1  0  0  0  0
 11 12  2  0  0  0  0
 11 13  1  0  0  0  0
  1 14  1  0  0  0  0
  1 15  1  0  0  0  0
  1 16  1  0  0  0  0
  3 17  1  0  0  0  0
  4 18  1  0  0  0  0
  4 19  1  0  0  0  0
  7 20  1  0  0  0  0
  7 21  1  0  0  0  0
 10 22  1  0  0  0  0
 12 23  1  0  0  0  0
 12 24  1  0  0  0  0
 13 25  1  0  0  0  0
 13 26  1  0  0  0  0
 13 27  1  0  0  0  0
M  END
