 xtb: 6.7.1 (edcfbbe)
          04042513273D

 12 11  0     0  0            999 V2000
   -1.9499    0.4984    0.0652 C   0  0  0  0  0  0  0  0  0  0  0  0
   -0.9012   -0.5896   -0.1234 C   0  0  0  0  0  0  0  0  0  0  0  0
    0.5506   -0.1639   -0.0223 C   0  0  0  0  0  0  0  0  0  0  0  0
    1.4569   -0.9824   -0.1796 O   0  0  0  0  0  0  0  0  0  0  0  0
    0.8042    1.1207    0.2427 N   0  0  0  0  0  0  0  0  0  0  0  0
   -2.9390    0.0595   -0.0389 H   0  0  0  0  0  0  0  0  0  0  0  0
   -1.8849    0.9391    1.0569 H   0  0  0  0  0  0  0  0  0  0  0  0
   -1.8496    1.2749   -0.6890 H   0  0  0  0  0  0  0  0  0  0  0  0
   -1.0145   -1.0602   -1.1030 H   0  0  0  0  0  0  0  0  0  0  0  0
   -1.0398   -1.3820    0.6163 H   0  0  0  0  0  0  0  0  0  0  0  0
    0.0660    1.7896    0.3719 H   0  0  0  0  0  0  0  0  0  0  0  0
    1.7633    1.4190    0.3142 H   0  0  0  0  0  0  0  0  0  0  0  0
  1  2  1  0  0  0  0
  2  3  1  0  0  0  0
  3  4  2  0  0  0  0
  3  5  4  0  0  0  0
  1  6  1  0  0  0  0
  1  7  1  0  0  0  0
  1  8  1  0  0  0  0
  2  9  1  0  0  0  0
  2 10  1  0  0  0  0
  5 11  1  0  0  0  0
  5 12  1  0  0  0  0
M  END
