19
CONF1
C -1.7536224538 1.0857995001 0.0374906524
C -0.8883999968 -0.1338827889 -0.1111201113
O -1.4007385758 -1.2334029125 -0.3007932093
C 0.6276309930 0.0294368675 -0.0213107752
C 0.9684959390 0.2062109644 1.4732236318
C 1.0845643849 1.2687741343 -0.8050680539
C 1.3307768510 -1.2173184218 -0.5593484838
H -1.7850127440 1.5995939555 -0.9318417259
H -2.7698063431 0.7917663438 0.3053384772
H -1.3558055008 1.7985107808 0.7632816469
H 0.5177090197 1.1115010922 1.8897664301
H 0.6296479492 -0.6549691728 2.0583854140
H 2.0553054903 0.2873124159 1.5800202070
H 2.1750200138 1.3478300996 -0.7457313457
H 0.6588879508 2.1905675929 -0.3993769100
H 0.8057561051 1.1919891601 -1.8614043113
H 1.0514826027 -2.1107678101 0.0055370820
H 2.4144150708 -1.0866431713 -0.4782059592
H 1.0832503629 -1.3860196404 -1.6125648706
19
CONF3
C -1.6534792678 -0.7886210642 0.9509548514
C -0.8893425666 -0.0265344463 -0.1010841734
O -1.5044385218 0.5047205150 -1.0209577345
C 0.6283252655 0.0622303120 0.0028215382
C 0.9887061976 0.7266621254 1.3447879791
C 1.1990033102 0.8856707608 -1.1498947233
C 1.2018655822 -1.3663065310 -0.0435300689
H -2.2282874093 -1.5779508651 0.4552393510
H -1.0300902263 -1.2304841800 1.7271347770
H -2.3751585057 -0.1064082648 1.4126292543
H 0.6463149613 0.1374981392 2.1995486206
H 2.0775163586 0.8202389857 1.4129409319
H 0.5541228939 1.7293248298 1.4151574225
H 2.2884240697 0.9347624513 -1.0563582825
H 0.8086809173 1.9076237474 -1.1407755992
H 0.9599567814 0.4367581739 -2.1185339254
H 2.2944355775 -1.3101835320 0.0010525043
H 0.9229201519 -1.8712185605 -0.9743242071
H 0.8598234065 -1.9739344457 0.7984542149
19
CONF2
C -1.6517882218 -0.9783765975 -0.8335405642
C -0.9090492871 0.0113011587 0.0081233638
O -1.5157926518 0.8205766443 0.7053665240
C 0.6256495444 0.0185522014 0.0058775969
C 1.0804158059 -0.2724386862 1.4471591482
C 1.0814978499 1.4282895136 -0.4073786026
C 1.2396987135 -1.0143083830 -0.9418109081
H -1.3786244398 -0.8534526999 -1.8873685243
H -1.3606542475 -1.9980455859 -0.5580972629
H -2.7278701444 -0.8504006984 -0.7090735949
H 0.7438844052 -1.2617791108 1.7757471924
H 2.1741364857 -0.2521295314 1.4924993378
H 0.6902163914 0.4766225082 2.1414804923
H 2.1750949686 1.4754327172 -0.3902702224
H 0.6905634817 2.1851726471 0.2776218363
H 0.7451422239 1.6680822887 -1.4218741246
H 2.3309272965 -0.9480201707 -0.8824127333
H 0.9515045891 -0.8331204684 -1.9817904585
H 0.9538185805 -2.0358671894 -0.6738247072
