26
 xtb: 6.7.1 (edcfbbe)
C           -3.95085961298809       -0.31316539314209       -0.00205772102916
C           -3.73919749524269        1.06626949827433       -0.00189300557929
C           -2.44766462517454        1.57601397981918       -0.00072193109786
C           -1.34914201039107        0.71302481491904        0.00018615798803
C           -1.56371652852340       -0.67571744065485        0.00006602745689
C           -2.86765197434894       -1.17983143798684       -0.00097071560316
C           -0.42029950174386       -1.60756831839052        0.00099626399425
O           -0.59976283045433       -2.82961833113122        0.00207162295405
C            0.94660499664545       -1.03266417584009        0.00042843787524
C            2.01547706022296       -1.91362163548837       -0.00006375917035
C            3.32484275182984       -1.41816209374341       -0.00107366701425
C            3.56289796241711       -0.06514948346305       -0.00151798079633
C            2.49510365806081        0.86853032092790       -0.00080315915910
C            1.15314403258898        0.37541720201416        0.00017574322248
C            0.02149326810954        1.28448615627835        0.00106306347705
O            0.15726824880840        2.52541573157466        0.00201968772891
N            2.79189594683867        2.18196823311046       -0.00131869777235
H           -4.96134165785093       -0.70788890359074       -0.00306886136034
H           -4.58612422224464        1.74456190231093       -0.00272612936393
H           -2.28152096711389        2.64700433272657       -0.00058174066200
H           -3.02044460074649       -2.25310419721271       -0.00102486221612
H            1.83094076906462       -2.98077575019748        0.00022983591876
H            4.16210880535497       -2.10848956396906       -0.00155824809332
H            4.57957497150432        0.31687260186271       -0.00236493547190
H            2.03982471295149        2.85562490576565        0.00034597555525
H            3.75724438375818        2.46994890704508       -0.00137451255976
