 xtb: 6.7.1 (edcfbbe)
          04062518003D

 24 24  0     0  0            999 V2000
   -2.1420   -0.9293   -0.2862 C   0  0  0  0  0  0  0  0  0  0  0  0
   -1.1738   -0.3640    0.7672 C   0  0  0  0  0  0  0  0  0  0  0  0
   -1.7258   -0.4143    1.7152 H   0  0  0  0  0  0  0  0  0  0  0  0
   -0.7659    1.1093    0.5530 C   0  0  0  0  0  0  0  0  0  0  0  0
   -1.6236    1.6583    0.1380 H   0  0  0  0  0  0  0  0  0  0  0  0
    0.4237    1.2954   -0.4109 C   0  0  0  0  0  0  0  0  0  0  0  0
    0.8332    2.2961   -0.2167 H   0  0  0  0  0  0  0  0  0  0  0  0
    1.5501    0.2952   -0.0736 C   0  0  0  0  0  0  0  0  0  0  0  0
    2.2514    0.2578   -0.9145 H   0  0  0  0  0  0  0  0  0  0  0  0
    1.0500   -1.1496    0.1686 C   0  0  0  0  0  0  0  0  0  0  0  0
    1.8406   -1.6799    0.7164 H   0  0  0  0  0  0  0  0  0  0  0  0
   -0.0581   -1.2092    1.0329 O   0  0  0  0  0  0  0  0  0  0  0  0
    0.8629   -1.8657   -1.0082 O   0  0  0  0  0  0  0  0  0  0  0  0
    2.2870    0.7418    1.0400 O   0  0  0  0  0  0  0  0  0  0  0  0
    0.0553    1.3010   -1.7593 O   0  0  0  0  0  0  0  0  0  0  0  0
   -0.3538    1.6826    1.7756 O   0  0  0  0  0  0  0  0  0  0  0  0
   -1.6203   -0.8592   -1.6027 O   0  0  0  0  0  0  0  0  0  0  0  0
   -3.0718   -0.3549   -0.2228 H   0  0  0  0  0  0  0  0  0  0  0  0
   -2.3365   -1.9729   -0.0170 H   0  0  0  0  0  0  0  0  0  0  0  0
    0.0454   -1.5582   -1.4535 H   0  0  0  0  0  0  0  0  0  0  0  0
    1.6637    0.9770    1.7481 H   0  0  0  0  0  0  0  0  0  0  0  0
   -0.5199    0.5337   -1.9445 H   0  0  0  0  0  0  0  0  0  0  0  0
   -1.0939    1.7210    2.3985 H   0  0  0  0  0  0  0  0  0  0  0  0
   -2.2733   -1.2140   -2.2241 H   0  0  0  0  0  0  0  0  0  0  0  0
  1  2  1  0  0  0  0
  2  3  1  0  0  0  0
  2  4  1  0  0  0  0
  4  5  1  0  0  0  0
  4  6  1  0  0  0  0
  6  7  1  0  0  0  0
  6  8  1  0  0  0  0
  8  9  1  0  0  0  0
  8 10  1  0  0  0  0
 10 11  1  0  0  0  0
  2 12  1  0  0  0  0
 10 12  1  0  0  0  0
 10 13  1  0  0  0  0
  8 14  1  0  0  0  0
  6 15  1  0  0  0  0
  4 16  1  0  0  0  0
  1 17  1  0  0  0  0
  1 18  1  0  0  0  0
  1 19  1  0  0  0  0
 13 20  1  0  0  0  0
 14 21  1  0  0  0  0
 15 22  1  0  0  0  0
 16 23  1  0  0  0  0
 17 24  1  0  0  0  0
M  END
