 xtb: 6.7.1 (edcfbbe)
          04062518003D

 24 24  0     0  0            999 V2000
   -2.2530   -0.9791   -0.3547 C   0  0  0  0  0  0  0  0  0  0  0  0
   -1.1504   -0.2209    0.3943 C   0  0  0  0  0  0  0  0  0  0  0  0
   -1.5883    0.2260    1.2952 H   0  0  0  0  0  0  0  0  0  0  0  0
   -0.5659    0.9025   -0.4650 C   0  0  0  0  0  0  0  0  0  0  0  0
   -0.3968    0.5321   -1.4904 H   0  0  0  0  0  0  0  0  0  0  0  0
    0.7798    1.3245    0.1409 C   0  0  0  0  0  0  0  0  0  0  0  0
    0.6347    1.5553    1.2024 H   0  0  0  0  0  0  0  0  0  0  0  0
    1.7727    0.1612    0.0133 C   0  0  0  0  0  0  0  0  0  0  0  0
    2.2243    0.1832   -0.9915 H   0  0  0  0  0  0  0  0  0  0  0  0
    1.0430   -1.1932    0.1300 C   0  0  0  0  0  0  0  0  0  0  0  0
    1.6819   -1.8577    0.7274 H   0  0  0  0  0  0  0  0  0  0  0  0
   -0.1482   -1.1264    0.8667 O   0  0  0  0  0  0  0  0  0  0  0  0
    0.8455   -1.6824   -1.1615 O   0  0  0  0  0  0  0  0  0  0  0  0
    2.7710    0.1949    0.9996 O   0  0  0  0  0  0  0  0  0  0  0  0
    1.2524    2.5126   -0.4424 O   0  0  0  0  0  0  0  0  0  0  0  0
   -1.4789    1.9686   -0.4930 O   0  0  0  0  0  0  0  0  0  0  0  0
   -2.9496   -1.8677    0.4824 O   0  0  0  0  0  0  0  0  0  0  0  0
   -1.8106   -1.5144   -1.2054 H   0  0  0  0  0  0  0  0  0  0  0  0
   -2.9828   -0.2568   -0.7250 H   0  0  0  0  0  0  0  0  0  0  0  0
    0.6550   -2.6322   -1.1395 H   0  0  0  0  0  0  0  0  0  0  0  0
    3.2162    1.0560    0.9768 H   0  0  0  0  0  0  0  0  0  0  0  0
    1.4642    2.3605   -1.3763 H   0  0  0  0  0  0  0  0  0  0  0  0
   -0.9762    2.7974   -0.5722 H   0  0  0  0  0  0  0  0  0  0  0  0
   -2.3023   -2.3842    0.9849 H   0  0  0  0  0  0  0  0  0  0  0  0
  1  2  1  0  0  0  0
  2  3  1  0  0  0  0
  2  4  1  0  0  0  0
  4  5  1  0  0  0  0
  4  6  1  0  0  0  0
  6  7  1  0  0  0  0
  6  8  1  0  0  0  0
  8  9  1  0  0  0  0
  8 10  1  0  0  0  0
 10 11  1  0  0  0  0
  2 12  1  0  0  0  0
 10 12  1  0  0  0  0
 10 13  1  0  0  0  0
  8 14  1  0  0  0  0
  6 15  1  0  0  0  0
  4 16  1  0  0  0  0
  1 17  1  0  0  0  0
  1 18  1  0  0  0  0
  1 19  1  0  0  0  0
 13 20  1  0  0  0  0
 14 21  1  0  0  0  0
 15 22  1  0  0  0  0
 16 23  1  0  0  0  0
 17 24  1  0  0  0  0
M  END
