18
CONF1
C 2.4116100380 0.0000297940 0.0134756466
N 0.9983962438 0.0000093144 -0.3027957614
C 0.3308603410 -1.1867776410 0.2073429287
C -1.1362484653 -1.1615570471 -0.2181716705
O -1.7897839623 -0.0000112031 0.2564883631
C -1.1362688930 1.1615703291 -0.2182050844
C 0.3308069589 1.1867230096 0.2073843218
H 2.6023458174 0.0007255626 1.0979846902
H 2.8695461311 0.8853150940 -0.4232246869
H 2.8692349574 -0.8858946969 -0.4220687548
H 0.8154997009 -2.0704808116 -0.2103915392
H 0.3864974221 -1.2367230530 1.3105830255
H -1.1958286770 -1.1919534903 -1.3149207971
H -1.6797123996 -2.0066463619 0.2052871277
H -1.1957371267 1.1919039579 -1.3149774348
H -1.6797756460 2.0066984696 0.2051650584
H 0.8153932691 2.0705123051 -0.2102906410
H 0.3863898526 1.2367291241 1.3106923091
