18
CONF1
C 2.4093298773 0.0000183871 0.0492107400
N 1.0123337985 -0.0000093307 -0.3900065077
C 0.3337600643 -1.1882134442 0.1510996066
C -1.1382415415 -1.1755443627 -0.2089410385
O -1.7887108876 0.0000154199 0.3006979878
C -1.1382513874 1.1755356627 -0.2090471929
C 0.3337523937 1.1882429211 0.1509834966
H 2.5034957155 0.0001530911 1.1500401277
H 2.9211807209 0.8872417507 -0.3370365939
H 2.9211384249 -0.8873227606 -0.3368163701
H 0.7954862816 -2.0910977714 -0.2649242880
H 0.4363512976 -1.2353258082 1.2525804289
H -1.2699745057 -1.2227205059 -1.3010794984
H -1.6451198067 -2.0324930899 0.2433208465
H -1.2699928973 1.2226174603 -1.3011886005
H -1.6451311638 2.0325200975 0.2431457567
H 0.7954713872 2.0910909792 -0.2651284204
H 0.4363510003 1.2354639206 1.2524604577
