 xtb: 6.7.1 (edcfbbe)
          04062518003D

 24 24  0     0  0            999 V2000
   -2.5667   -0.6687   -0.2865 C   0  0  0  0  0  0  0  0  0  0  0  0
   -1.1719   -0.2951    0.2270 C   0  0  0  0  0  0  0  0  0  0  0  0
   -1.2011   -0.2123    1.3244 H   0  0  0  0  0  0  0  0  0  0  0  0
   -0.7075    1.0435   -0.3593 C   0  0  0  0  0  0  0  0  0  0  0  0
   -0.7011    0.9530   -1.4592 H   0  0  0  0  0  0  0  0  0  0  0  0
    0.7170    1.3371    0.1289 C   0  0  0  0  0  0  0  0  0  0  0  0
    0.6915    1.5041    1.2124 H   0  0  0  0  0  0  0  0  0  0  0  0
    1.6574    0.1588   -0.1614 C   0  0  0  0  0  0  0  0  0  0  0  0
    1.8229    0.0671   -1.2470 H   0  0  0  0  0  0  0  0  0  0  0  0
    1.0385   -1.1652    0.3139 C   0  0  0  0  0  0  0  0  0  0  0  0
    1.0400   -1.1621    1.4231 H   0  0  0  0  0  0  0  0  0  0  0  0
   -0.2834   -1.3305   -0.1534 O   0  0  0  0  0  0  0  0  0  0  0  0
    1.7970   -2.1947   -0.1964 O   0  0  0  0  0  0  0  0  0  0  0  0
    2.8786    0.3134    0.5124 O   0  0  0  0  0  0  0  0  0  0  0  0
    1.2124    2.5365   -0.4166 O   0  0  0  0  0  0  0  0  0  0  0  0
   -1.6008    2.0495    0.0390 O   0  0  0  0  0  0  0  0  0  0  0  0
   -3.1108   -1.7734    0.3837 O   0  0  0  0  0  0  0  0  0  0  0  0
   -2.5014   -0.8577   -1.3648 H   0  0  0  0  0  0  0  0  0  0  0  0
   -3.2368    0.1721   -0.1023 H   0  0  0  0  0  0  0  0  0  0  0  0
    1.4238   -3.0504    0.0670 H   0  0  0  0  0  0  0  0  0  0  0  0
    3.2280    1.1996    0.3254 H   0  0  0  0  0  0  0  0  0  0  0  0
    1.2771    2.4587   -1.3809 H   0  0  0  0  0  0  0  0  0  0  0  0
   -1.1682    2.9118   -0.0733 H   0  0  0  0  0  0  0  0  0  0  0  0
   -2.5367   -2.5381    0.2347 H   0  0  0  0  0  0  0  0  0  0  0  0
  1  2  1  0  0  0  0
  2  3  1  0  0  0  0
  2  4  1  0  0  0  0
  4  5  1  0  0  0  0
  4  6  1  0  0  0  0
  6  7  1  0  0  0  0
  6  8  1  0  0  0  0
  8  9  1  0  0  0  0
  8 10  1  0  0  0  0
 10 11  1  0  0  0  0
  2 12  1  0  0  0  0
 10 12  1  0  0  0  0
 10 13  1  0  0  0  0
  8 14  1  0  0  0  0
  6 15  1  0  0  0  0
  4 16  1  0  0  0  0
  1 17  1  0  0  0  0
  1 18  1  0  0  0  0
  1 19  1  0  0  0  0
 13 20  1  0  0  0  0
 14 21  1  0  0  0  0
 15 22  1  0  0  0  0
 16 23  1  0  0  0  0
 17 24  1  0  0  0  0
M  END
