26
 xtb: 6.7.1 (edcfbbe)
C           -3.31384358385914       -0.56495751397145        1.74111238783343
N           -2.32007994761898       -0.02546070883140        0.81877238503632
C           -2.35282793432128       -0.34861498056685       -0.47898394650266
O           -3.22638141214317       -1.01258158891992       -1.02581431210632
O           -1.33109635124890        0.13966133538272       -1.27801200580005
C           -0.21026576153250        0.74159059344039       -0.68738565158908
C           -0.15744452606526        2.10786994003605       -0.59246767618094
C            0.99499142199063        2.71931172801120       -0.05559257377035
C            2.05576362053432        1.95621570288393        0.36931018738743
C            2.01562562209918        0.54328729960806        0.27552110472151
C            0.85535614207945       -0.09414393066230       -0.27022722809023
C            0.81442970412437       -1.50532831222745       -0.36746513691915
C            1.88183028531021       -2.25823854314517        0.06239043379111
C            3.02889563008092       -1.63685632956277        0.60163328609739
C            3.09449537415620       -0.26787642936293        0.70466265011428
H           -3.14843525813220       -0.11409159769121        2.71990861333064
H           -3.22496197704908       -1.65233720515192        1.83001484894708
H           -4.32382110109234       -0.31762380977646        1.40476442738423
H           -1.53237688473870        0.48623342312509        1.18826296530568
H           -1.00048708461232        2.70219140929992       -0.92873465256963
H            1.03342055558440        3.80095743381972        0.01800612784628
H            2.94262500254283        2.42571429820623        0.78408012356820
H           -0.06319186724696       -1.98817917064969       -0.78444396766139
H            1.84508726328000       -3.34009536829044       -0.01485607127039
H            3.86206998651319       -2.24768107305755        0.93419122285045
H            3.97548344950413        0.21497617067916        1.11737921832580
