 xtb: 6.7.1 (edcfbbe)
          04062518003D

 24 24  0     0  0            999 V2000
   -2.1898   -0.9125   -0.1844 C   0  0  0  0  0  0  0  0  0  0  0  0
   -1.1390   -0.3471    0.7948 C   0  0  0  0  0  0  0  0  0  0  0  0
   -1.6134   -0.3691    1.7842 H   0  0  0  0  0  0  0  0  0  0  0  0
   -0.7419    1.1171    0.5036 C   0  0  0  0  0  0  0  0  0  0  0  0
   -1.5995    1.6221    0.0367 H   0  0  0  0  0  0  0  0  0  0  0  0
    0.4559    1.2476   -0.4531 C   0  0  0  0  0  0  0  0  0  0  0  0
    0.8153    2.2839   -0.3868 H   0  0  0  0  0  0  0  0  0  0  0  0
    1.6044    0.3269    0.0125 C   0  0  0  0  0  0  0  0  0  0  0  0
    2.4022    0.3441   -0.7393 H   0  0  0  0  0  0  0  0  0  0  0  0
    1.0844   -1.1182    0.1200 C   0  0  0  0  0  0  0  0  0  0  0  0
    1.8355   -1.7438    0.6223 H   0  0  0  0  0  0  0  0  0  0  0  0
   -0.0267   -1.2264    0.9723 O   0  0  0  0  0  0  0  0  0  0  0  0
    0.8336   -1.6697   -1.1454 O   0  0  0  0  0  0  0  0  0  0  0  0
    2.1894    0.7591    1.2100 O   0  0  0  0  0  0  0  0  0  0  0  0
    0.1244    1.0045   -1.7973 O   0  0  0  0  0  0  0  0  0  0  0  0
   -0.3684    1.7828    1.6919 O   0  0  0  0  0  0  0  0  0  0  0  0
   -1.7917   -0.9319   -1.5340 O   0  0  0  0  0  0  0  0  0  0  0  0
   -3.0811   -0.2833   -0.1390 H   0  0  0  0  0  0  0  0  0  0  0  0
   -2.4477   -1.9217    0.1517 H   0  0  0  0  0  0  0  0  0  0  0  0
    0.9064   -0.9764   -1.8261 H   0  0  0  0  0  0  0  0  0  0  0  0
    1.4878    1.0383    1.8242 H   0  0  0  0  0  0  0  0  0  0  0  0
   -0.6864    0.4468   -1.8521 H   0  0  0  0  0  0  0  0  0  0  0  0
   -1.1355    1.8998    2.2702 H   0  0  0  0  0  0  0  0  0  0  0  0
   -1.0973   -1.6106   -1.6364 H   0  0  0  0  0  0  0  0  0  0  0  0
  1  2  1  0  0  0  0
  2  3  1  0  0  0  0
  2  4  1  0  0  0  0
  4  5  1  0  0  0  0
  4  6  1  0  0  0  0
  6  7  1  0  0  0  0
  6  8  1  0  0  0  0
  8  9  1  0  0  0  0
  8 10  1  0  0  0  0
 10 11  1  0  0  0  0
  2 12  1  0  0  0  0
 10 12  1  0  0  0  0
 10 13  1  0  0  0  0
  8 14  1  0  0  0  0
  6 15  1  0  0  0  0
  4 16  1  0  0  0  0
  1 17  1  0  0  0  0
  1 18  1  0  0  0  0
  1 19  1  0  0  0  0
 13 20  1  0  0  0  0
 14 21  1  0  0  0  0
 15 22  1  0  0  0  0
 16 23  1  0  0  0  0
 17 24  1  0  0  0  0
M  END
