27
CONF1
C 3.6976895639 -0.2812575474 0.1205753587
C 2.2158110874 -0.1837223493 0.0177422779
C 1.5748356728 1.0067768122 -0.0086645731
C 0.1384869061 1.1291361889 -0.1968740351
O -0.3943195116 2.2487850653 -0.2352405879
C -0.6587527613 -0.1482271329 -0.4201662511
H -0.5347384026 -0.3523579357 -1.4989517028
C -0.0057267585 -1.3080665336 0.3388832840
C 1.4547016102 -1.4697703388 -0.0667099465
C -2.1641010071 0.0341158360 -0.1541509650
C -2.9794053267 -1.1174362231 -0.7433179396
C -2.4753042182 0.2117426458 1.3340211663
H 4.1815318494 0.6969091580 0.0765276969
H 4.0886350450 -0.9158015300 -0.6845742020
H 3.9734355136 -0.7762306872 1.0605283516
H 2.1334029913 1.9375181598 0.0632137056
H -0.0534123076 -1.1125733759 1.4169070744
H -0.5505253808 -2.2376693796 0.1503232792
H 1.9555654739 -2.2249667695 0.5500812342
H 1.5257082364 -1.8331633623 -1.1042600283
H -2.4626858717 0.9522679791 -0.6737404510
H -2.7570461040 -2.0667421171 -0.2434339122
H -2.7771947135 -1.2419373238 -1.8129289142
H -4.0511448260 -0.9266091208 -0.6220241339
H -1.8564138616 0.9926165081 1.7890822048
H -2.3089367431 -0.7187518603 1.8878554332
H -3.5249164532 0.4923319573 1.4719096037
27
CONF2
C 3.2401984683 -0.0462655694 1.0061541151
C 1.9214439569 -0.0865573771 0.3163982691
C 1.3437831757 1.0274112927 -0.1909687797
C 0.0354009814 1.0158157027 -0.8243995412
O -0.4031890300 2.0218262931 -1.4057795199
C -0.7839380871 -0.2514038718 -0.7034950128
H -1.5187959470 -0.2487088919 -1.5181243629
C 0.1626632419 -1.4489033178 -0.8564715771
C 1.2618914033 -1.4263399158 0.2011608493
C -1.5731072887 -0.2426657013 0.6384465223
C -2.5395170439 0.9409221541 0.7061498421
C -2.3397426550 -1.5526710855 0.8275057377
H 3.6217617393 0.9716003589 1.1108890078
H 3.9711248567 -0.6495505990 0.4535242130
H 3.1559637948 -0.5042470126 1.9997041644
H 1.8548948323 1.9863572866 -0.1395996396
H -0.3931193124 -2.3892327846 -0.8165802346
H 0.6281854081 -1.3967728612 -1.8486192703
H 0.8604275244 -1.6896030571 1.1917792886
H 2.0272467829 -2.1813877652 -0.0138204515
H -0.8512921100 -0.1421741135 1.4602298022
H -3.2585574288 0.9012443215 -0.1209504889
H -2.0226777783 1.9035262000 0.6589775785
H -3.1042680151 0.9124126032 1.6436021253
H -2.9592758212 -1.4957241154 1.7287229791
H -1.6745061781 -2.4132848964 0.9386742007
H -3.0033403315 -1.7403948246 -0.0255141318
