 xtb: 6.7.1 (edcfbbe)
          04042521573D

 16 15  0     0  0            999 V2000
    1.7138    0.9432   -0.0011 C   0  0  0  0  0  0  0  0  0  0  0  0
    0.7132   -0.1778    0.0000 C   0  0  0  0  0  0  0  0  0  0  0  0
    1.1332   -1.4424    0.0009 C   0  0  0  0  0  0  0  0  0  0  0  0
   -0.7133    0.1778    0.0000 C   0  0  0  0  0  0  0  0  0  0  0  0
   -1.1332    1.4424    0.0009 C   0  0  0  0  0  0  0  0  0  0  0  0
   -1.7138   -0.9432   -0.0011 C   0  0  0  0  0  0  0  0  0  0  0  0
    1.5855    1.5676   -0.8833 H   0  0  0  0  0  0  0  0  0  0  0  0
    2.7251    0.5460   -0.0021 H   0  0  0  0  0  0  0  0  0  0  0  0
    1.5873    1.5676    0.8813 H   0  0  0  0  0  0  0  0  0  0  0  0
    0.4672   -2.2857    0.0016 H   0  0  0  0  0  0  0  0  0  0  0  0
    2.1843   -1.6783    0.0007 H   0  0  0  0  0  0  0  0  0  0  0  0
   -2.1843    1.6783    0.0009 H   0  0  0  0  0  0  0  0  0  0  0  0
   -0.4672    2.2857    0.0018 H   0  0  0  0  0  0  0  0  0  0  0  0
   -1.5856   -1.5675   -0.8833 H   0  0  0  0  0  0  0  0  0  0  0  0
   -1.5871   -1.5677    0.8813 H   0  0  0  0  0  0  0  0  0  0  0  0
   -2.7251   -0.5460   -0.0018 H   0  0  0  0  0  0  0  0  0  0  0  0
  1  2  1  0  0  0  0
  2  3  2  0  0  0  0
  2  4  1  0  0  0  0
  4  5  2  0  0  0  0
  4  6  1  0  0  0  0
  1  7  1  0  0  0  0
  1  8  1  0  0  0  0
  1  9  1  0  0  0  0
  3 10  1  0  0  0  0
  3 11  1  0  0  0  0
  5 12  1  0  0  0  0
  5 13  1  0  0  0  0
  6 14  1  0  0  0  0
  6 15  1  0  0  0  0
  6 16  1  0  0  0  0
M  END
