 xtb: 6.7.1 (edcfbbe)
          04062518493D

 24 24  0     0  0            999 V2000
   -2.3895   -1.1649   -0.3146 C   0  0  0  0  0  0  0  0  0  0  0  0
   -1.0709   -0.6290    0.2537 C   0  0  0  0  0  0  0  0  0  0  0  0
   -1.1167   -0.6267    1.3542 H   0  0  0  0  0  0  0  0  0  0  0  0
   -0.7816    0.8053   -0.2194 C   0  0  0  0  0  0  0  0  0  0  0  0
   -0.8387    0.8330   -1.3208 H   0  0  0  0  0  0  0  0  0  0  0  0
    0.6361    1.2413    0.1917 C   0  0  0  0  0  0  0  0  0  0  0  0
    0.6670    1.3502    1.2868 H   0  0  0  0  0  0  0  0  0  0  0  0
    1.6696    0.1904   -0.2135 C   0  0  0  0  0  0  0  0  0  0  0  0
    1.7386    0.1819   -1.3122 H   0  0  0  0  0  0  0  0  0  0  0  0
    1.2206   -1.2010    0.2833 C   0  0  0  0  0  0  0  0  0  0  0  0
    1.2361   -1.1988    1.3863 H   0  0  0  0  0  0  0  0  0  0  0  0
   -0.0658   -1.5175   -0.1931 O   0  0  0  0  0  0  0  0  0  0  0  0
    2.0933   -2.1923   -0.1204 O   0  0  0  0  0  0  0  0  0  0  0  0
    2.9056    0.5292    0.3580 O   0  0  0  0  0  0  0  0  0  0  0  0
    0.9731    2.4568   -0.4260 O   0  0  0  0  0  0  0  0  0  0  0  0
   -1.6666    1.7422    0.3405 O   0  0  0  0  0  0  0  0  0  0  0  0
   -3.4509   -0.3558    0.1355 O   0  0  0  0  0  0  0  0  0  0  0  0
   -2.5040   -2.2008    0.0230 H   0  0  0  0  0  0  0  0  0  0  0  0
   -2.3202   -1.1551   -1.4091 H   0  0  0  0  0  0  0  0  0  0  0  0
    1.9396   -2.3950   -1.0572 H   0  0  0  0  0  0  0  0  0  0  0  0
    3.5446   -0.1744    0.1632 H   0  0  0  0  0  0  0  0  0  0  0  0
    0.3173    3.1198   -0.1616 H   0  0  0  0  0  0  0  0  0  0  0  0
   -2.5702    1.3832    0.2911 H   0  0  0  0  0  0  0  0  0  0  0  0
   -4.2882   -0.7057   -0.2012 H   0  0  0  0  0  0  0  0  0  0  0  0
  1  2  1  0  0  0  0
  2  3  1  0  0  0  0
  2  4  1  0  0  0  0
  4  5  1  0  0  0  0
  4  6  1  0  0  0  0
  6  7  1  0  0  0  0
  6  8  1  0  0  0  0
  8  9  1  0  0  0  0
  8 10  1  0  0  0  0
 10 11  1  0  0  0  0
  2 12  1  0  0  0  0
 10 12  1  0  0  0  0
 10 13  1  0  0  0  0
  8 14  1  0  0  0  0
  6 15  1  0  0  0  0
  4 16  1  0  0  0  0
  1 17  1  0  0  0  0
  1 18  1  0  0  0  0
  1 19  1  0  0  0  0
 13 20  1  0  0  0  0
 14 21  1  0  0  0  0
 15 22  1  0  0  0  0
 16 23  1  0  0  0  0
 17 24  1  0  0  0  0
M  END
