 xtb: 6.7.1 (edcfbbe)
          04052518533D

 23 23  0     0  0            999 V2000
   -2.8345    0.0097    0.5200 C   0  0  0  0  0  0  0  0  0  0  0  0
   -1.4645   -0.0394   -0.0932 C   0  0  0  0  0  0  0  0  0  0  0  0
   -1.2910   -0.3814   -1.2463 O   0  0  0  0  0  0  0  0  0  0  0  0
   -0.3401    0.3559    0.8454 C   0  0  0  0  0  0  0  0  0  0  0  0
    0.5368    1.4757    0.2625 C   0  0  0  0  0  0  0  0  0  0  0  0
    1.3966    1.0005   -0.9038 C   0  0  0  0  0  0  0  0  0  0  0  0
    2.2613   -0.1830   -0.4826 C   0  0  0  0  0  0  0  0  0  0  0  0
    1.3723   -1.3235    0.0022 C   0  0  0  0  0  0  0  0  0  0  0  0
    0.5266   -0.8698    1.1866 C   0  0  0  0  0  0  0  0  0  0  0  0
   -3.0541    1.0316    0.8208 H   0  0  0  0  0  0  0  0  0  0  0  0
   -3.5819   -0.3318   -0.1909 H   0  0  0  0  0  0  0  0  0  0  0  0
   -2.8560   -0.6138    1.4105 H   0  0  0  0  0  0  0  0  0  0  0  0
   -0.7915    0.7218    1.7721 H   0  0  0  0  0  0  0  0  0  0  0  0
   -0.0993    2.3034   -0.0596 H   0  0  0  0  0  0  0  0  0  0  0  0
    1.1877    1.8410    1.0603 H   0  0  0  0  0  0  0  0  0  0  0  0
    0.7519    0.6983   -1.7309 H   0  0  0  0  0  0  0  0  0  0  0  0
    2.0253    1.8238   -1.2491 H   0  0  0  0  0  0  0  0  0  0  0  0
    2.8689   -0.5175   -1.3251 H   0  0  0  0  0  0  0  0  0  0  0  0
    2.9356    0.1228    0.3212 H   0  0  0  0  0  0  0  0  0  0  0  0
    0.7190   -1.6402   -0.8135 H   0  0  0  0  0  0  0  0  0  0  0  0
    1.9823   -2.1793    0.2977 H   0  0  0  0  0  0  0  0  0  0  0  0
   -0.1142   -1.6883    1.5225 H   0  0  0  0  0  0  0  0  0  0  0  0
    1.1860   -0.5954    2.0129 H   0  0  0  0  0  0  0  0  0  0  0  0
  1  2  1  0  0  0  0
  2  3  2  0  0  0  0
  2  4  1  0  0  0  0
  4  5  1  0  0  0  0
  5  6  1  0  0  0  0
  6  7  1  0  0  0  0
  7  8  1  0  0  0  0
  4  9  1  0  0  0  0
  8  9  1  0  0  0  0
  1 10  1  0  0  0  0
  1 11  1  0  0  0  0
  1 12  1  0  0  0  0
  4 13  1  0  0  0  0
  5 14  1  0  0  0  0
  5 15  1  0  0  0  0
  6 16  1  0  0  0  0
  6 17  1  0  0  0  0
  7 18  1  0  0  0  0
  7 19  1  0  0  0  0
  8 20  1  0  0  0  0
  8 21  1  0  0  0  0
  9 22  1  0  0  0  0
  9 23  1  0  0  0  0
M  END
