 xtb: 6.7.1 (edcfbbe)
          04062518003D

 24 24  0     0  0            999 V2000
   -1.9071   -0.5707   -0.7976 C   0  0  0  0  0  0  0  0  0  0  0  0
   -1.2024   -0.0873    0.4833 C   0  0  0  0  0  0  0  0  0  0  0  0
   -1.9221   -0.0544    1.3109 H   0  0  0  0  0  0  0  0  0  0  0  0
   -0.6219    1.3254    0.3179 C   0  0  0  0  0  0  0  0  0  0  0  0
   -1.3730    1.9295   -0.2099 H   0  0  0  0  0  0  0  0  0  0  0  0
    0.6862    1.3172   -0.5072 C   0  0  0  0  0  0  0  0  0  0  0  0
    1.1934    2.2828   -0.3573 H   0  0  0  0  0  0  0  0  0  0  0  0
    1.6504    0.2511    0.0470 C   0  0  0  0  0  0  0  0  0  0  0  0
    2.4667    0.1114   -0.6680 H   0  0  0  0  0  0  0  0  0  0  0  0
    0.9653   -1.1148    0.2348 C   0  0  0  0  0  0  0  0  0  0  0  0
    1.6088   -1.7200    0.8981 H   0  0  0  0  0  0  0  0  0  0  0  0
   -0.2367   -1.0213    0.9526 O   0  0  0  0  0  0  0  0  0  0  0  0
    0.8272   -1.7255   -1.0075 O   0  0  0  0  0  0  0  0  0  0  0  0
    2.2253    0.6836    1.2521 O   0  0  0  0  0  0  0  0  0  0  0  0
    0.4567    1.0840   -1.8724 O   0  0  0  0  0  0  0  0  0  0  0  0
   -0.3917    1.8382    1.6133 O   0  0  0  0  0  0  0  0  0  0  0  0
   -2.3587   -1.8966   -0.6861 O   0  0  0  0  0  0  0  0  0  0  0  0
   -1.2053   -0.5597   -1.6332 H   0  0  0  0  0  0  0  0  0  0  0  0
   -2.7413    0.1093   -1.0152 H   0  0  0  0  0  0  0  0  0  0  0  0
    0.3157   -2.5444   -0.9100 H   0  0  0  0  0  0  0  0  0  0  0  0
    1.5105    0.8328    1.8962 H   0  0  0  0  0  0  0  0  0  0  0  0
    0.1847    1.9044   -2.3082 H   0  0  0  0  0  0  0  0  0  0  0  0
   -0.2452    2.7943    1.5718 H   0  0  0  0  0  0  0  0  0  0  0  0
   -2.9629   -1.9715    0.0663 H   0  0  0  0  0  0  0  0  0  0  0  0
  1  2  1  0  0  0  0
  2  3  1  0  0  0  0
  2  4  1  0  0  0  0
  4  5  1  0  0  0  0
  4  6  1  0  0  0  0
  6  7  1  0  0  0  0
  6  8  1  0  0  0  0
  8  9  1  0  0  0  0
  8 10  1  0  0  0  0
 10 11  1  0  0  0  0
  2 12  1  0  0  0  0
 10 12  1  0  0  0  0
 10 13  1  0  0  0  0
  8 14  1  0  0  0  0
  6 15  1  0  0  0  0
  4 16  1  0  0  0  0
  1 17  1  0  0  0  0
  1 18  1  0  0  0  0
  1 19  1  0  0  0  0
 13 20  1  0  0  0  0
 14 21  1  0  0  0  0
 15 22  1  0  0  0  0
 16 23  1  0  0  0  0
 17 24  1  0  0  0  0
M  END
