 xtb: 6.7.1 (edcfbbe)
          04032522143D

 12 11  0     0  0            999 V2000
   -1.9241   -0.2556    0.5222 C   0  0  0  0  0  0  0  0  0  0  0  0
   -1.1762   -0.0905   -0.7951 C   0  0  0  0  0  0  0  0  0  0  0  0
    0.0983    0.7225   -0.6365 C   0  0  0  0  0  0  0  0  0  0  0  0
    1.3232   -0.1958    0.3908 S   0  0  0  0  0  0  0  0  0  0  0  0
   -2.8246   -0.8458    0.3757 H   0  0  0  0  0  0  0  0  0  0  0  0
   -1.2961   -0.7622    1.2526 H   0  0  0  0  0  0  0  0  0  0  0  0
   -2.2057    0.7148    0.9250 H   0  0  0  0  0  0  0  0  0  0  0  0
   -1.8156    0.4195   -1.5193 H   0  0  0  0  0  0  0  0  0  0  0  0
   -0.9249   -1.0736   -1.2002 H   0  0  0  0  0  0  0  0  0  0  0  0
    0.5671    0.9017   -1.6030 H   0  0  0  0  0  0  0  0  0  0  0  0
   -0.1021    1.6680   -0.1339 H   0  0  0  0  0  0  0  0  0  0  0  0
    2.2788    0.7203    0.3087 H   0  0  0  0  0  0  0  0  0  0  0  0
  1  2  1  0  0  0  0
  2  3  1  0  0  0  0
  3  4  1  0  0  0  0
  1  5  1  0  0  0  0
  1  6  1  0  0  0  0
  1  7  1  0  0  0  0
  2  8  1  0  0  0  0
  2  9  1  0  0  0  0
  3 10  1  0  0  0  0
  3 11  1  0  0  0  0
  4 12  1  0  0  0  0
M  END
