20
 xtb: 6.7.1 (edcfbbe)
C           -1.79674539396756       -0.74935856451696       -0.54335254255193
C           -0.70760476026914        0.31210421059552       -0.37427643800441
C           -0.99660977016941        1.16695314365032        0.86172256913541
C            0.70763056032871       -0.31212112946072       -0.37418852863320
C            1.79679638587427        0.74932066895299       -0.54323746962211
C            0.99654722971573       -1.16687576449970        0.86190262289500
H           -1.84155557623911       -1.41620353809196        0.32491978333443
H           -2.78186988385451       -0.28160255097624       -0.64767519537369
H           -1.61952987781235       -1.36408586404410       -1.43291515997977
H           -0.75062544452959        0.97124391661850       -1.25375602206357
H           -1.05387938207576        0.54897467512611        1.76486712274834
H           -0.23280643757826        1.93408578714696        1.02434235488094
H           -1.95961501144979        1.67752922339738        0.75322590645738
H            0.75072481349926       -0.97132912538206       -1.25361300164354
H            2.78191500595842        0.28154686592425       -0.64753818260830
H            1.61961791704140        1.36406324470556       -1.43279702099284
H            1.84159441360776        1.41615153822738        0.32504690899126
H            1.95936772487875       -1.67778677345335        0.75333511245823
H            0.23251738362712       -1.93372925630992        1.02477955717256
H            1.05416922193813       -0.54876688328968        1.76493676619838
