20
 xtb: 6.7.1 (edcfbbe)
C           -3.65875308144110        0.04139519245602        0.01187883394794
C           -2.16083320731162        0.01493458354619       -0.00954421790172
C           -1.42562363634153        1.20607747868667       -0.01124976422078
C           -0.03825301785653        1.18994329600861       -0.00452165274444
C            0.65937661515189       -0.02644500055936        0.00110892744367
C           -0.07461635239979       -1.22086718711166        0.00000088858779
C           -1.46012033727373       -1.19794546039001       -0.00601951730972
C            2.14193766532173       -0.08127483182399        0.00447225954374
O            2.73070139230871       -1.16530817856934        0.00329101721963
C            2.91706523242823        1.20499861632676        0.00761083667200
H           -4.04879788209549        0.83993831035296       -0.62569801080452
H           -4.07850608724899       -0.91282716856708       -0.31520557940478
H           -4.02140156929309        0.23453247913967        1.02883600954789
H           -1.95177729588875        2.15639798306583       -0.01882843789476
H            0.49982714828132        2.13128077918582       -0.00710750296017
H            0.45264987122787       -2.16881912992597        0.00098620367131
H           -2.01481143487836       -2.13185265520796       -0.00985787183521
H            3.98548615163131        0.98774564452401        0.01245252026911
H            2.66022086749511        1.80586101367102        0.88666953579677
H            2.66865570722150        1.80539856886658       -0.87424072323563
