 xtb: 6.7.1 (edcfbbe)
          04062518003D

 24 24  0     0  0            999 V2000
   -2.3318   -0.7948    0.7336 C   0  0  0  0  0  0  0  0  0  0  0  0
   -0.8675   -0.3338    0.7444 C   0  0  0  0  0  0  0  0  0  0  0  0
   -0.5984   -0.0368    1.7666 H   0  0  0  0  0  0  0  0  0  0  0  0
   -0.6433    0.8595   -0.1907 C   0  0  0  0  0  0  0  0  0  0  0  0
   -0.8809    0.5353   -1.2151 H   0  0  0  0  0  0  0  0  0  0  0  0
    0.8351    1.3113   -0.1326 C   0  0  0  0  0  0  0  0  0  0  0  0
    0.8975    2.1489    0.5718 H   0  0  0  0  0  0  0  0  0  0  0  0
    1.7553    0.1754    0.3688 C   0  0  0  0  0  0  0  0  0  0  0  0
    2.7435    0.3163   -0.0922 H   0  0  0  0  0  0  0  0  0  0  0  0
    1.2102   -1.1645   -0.1372 C   0  0  0  0  0  0  0  0  0  0  0  0
    1.8467   -1.9829    0.2314 H   0  0  0  0  0  0  0  0  0  0  0  0
   -0.0759   -1.4513    0.3455 O   0  0  0  0  0  0  0  0  0  0  0  0
    1.2319   -1.0987   -1.5331 O   0  0  0  0  0  0  0  0  0  0  0  0
    1.8557    0.1043    1.7660 O   0  0  0  0  0  0  0  0  0  0  0  0
    1.2795    1.8155   -1.3672 O   0  0  0  0  0  0  0  0  0  0  0  0
   -1.5082    1.8928    0.2132 O   0  0  0  0  0  0  0  0  0  0  0  0
   -2.7283   -1.3041   -0.5130 O   0  0  0  0  0  0  0  0  0  0  0  0
   -2.9664    0.0677    0.9394 H   0  0  0  0  0  0  0  0  0  0  0  0
   -2.4656   -1.5475    1.5192 H   0  0  0  0  0  0  0  0  0  0  0  0
    1.0232   -1.9641   -1.9152 H   0  0  0  0  0  0  0  0  0  0  0  0
    2.3555    0.8653    2.0969 H   0  0  0  0  0  0  0  0  0  0  0  0
    1.3174    1.0848   -2.0046 H   0  0  0  0  0  0  0  0  0  0  0  0
   -1.4635    2.6123   -0.4329 H   0  0  0  0  0  0  0  0  0  0  0  0
   -2.1751   -2.0748   -0.7057 H   0  0  0  0  0  0  0  0  0  0  0  0
  1  2  1  0  0  0  0
  2  3  1  0  0  0  0
  2  4  1  0  0  0  0
  4  5  1  0  0  0  0
  4  6  1  0  0  0  0
  6  7  1  0  0  0  0
  6  8  1  0  0  0  0
  8  9  1  0  0  0  0
  8 10  1  0  0  0  0
 10 11  1  0  0  0  0
  2 12  1  0  0  0  0
 10 12  1  0  0  0  0
 10 13  1  0  0  0  0
  8 14  1  0  0  0  0
  6 15  1  0  0  0  0
  4 16  1  0  0  0  0
  1 17  1  0  0  0  0
  1 18  1  0  0  0  0
  1 19  1  0  0  0  0
 13 20  1  0  0  0  0
 14 21  1  0  0  0  0
 15 22  1  0  0  0  0
 16 23  1  0  0  0  0
 17 24  1  0  0  0  0
M  END
