 xtb: 6.7.1 (edcfbbe)
          04062518003D

 24 24  0     0  0            999 V2000
   -1.7451   -1.0366   -0.6897 C   0  0  0  0  0  0  0  0  0  0  0  0
   -1.0583   -0.5010    0.5813 C   0  0  0  0  0  0  0  0  0  0  0  0
   -1.7313   -0.6300    1.4388 H   0  0  0  0  0  0  0  0  0  0  0  0
   -0.7367    0.9968    0.4643 C   0  0  0  0  0  0  0  0  0  0  0  0
   -1.6188    1.4943    0.0448 H   0  0  0  0  0  0  0  0  0  0  0  0
    0.4824    1.2569   -0.4445 C   0  0  0  0  0  0  0  0  0  0  0  0
    0.7923    2.3009   -0.2636 H   0  0  0  0  0  0  0  0  0  0  0  0
    1.6578    0.3526   -0.0302 C   0  0  0  0  0  0  0  0  0  0  0  0
    2.3898    0.3523   -0.8474 H   0  0  0  0  0  0  0  0  0  0  0  0
    1.2407   -1.1149    0.1707 C   0  0  0  0  0  0  0  0  0  0  0  0
    2.0217   -1.5850    0.7905 H   0  0  0  0  0  0  0  0  0  0  0  0
    0.0813   -1.2747    0.9447 O   0  0  0  0  0  0  0  0  0  0  0  0
    1.1537   -1.7259   -1.0764 O   0  0  0  0  0  0  0  0  0  0  0  0
    2.2219    0.7816    1.1867 O   0  0  0  0  0  0  0  0  0  0  0  0
    0.2341    1.0562   -1.8107 O   0  0  0  0  0  0  0  0  0  0  0  0
   -0.5315    1.5815    1.7290 O   0  0  0  0  0  0  0  0  0  0  0  0
   -2.9676   -0.3885   -0.9403 O   0  0  0  0  0  0  0  0  0  0  0  0
   -1.8846   -2.1183   -0.5781 H   0  0  0  0  0  0  0  0  0  0  0  0
   -1.1100   -0.8505   -1.5578 H   0  0  0  0  0  0  0  0  0  0  0  0
    1.0454   -2.6828   -0.9682 H   0  0  0  0  0  0  0  0  0  0  0  0
    2.7542    1.5772    1.0407 H   0  0  0  0  0  0  0  0  0  0  0  0
   -0.4608    1.6623   -2.1063 H   0  0  0  0  0  0  0  0  0  0  0  0
    0.2617    1.1851    2.1264 H   0  0  0  0  0  0  0  0  0  0  0  0
   -3.6109   -0.6342   -0.2604 H   0  0  0  0  0  0  0  0  0  0  0  0
  1  2  1  0  0  0  0
  2  3  1  0  0  0  0
  2  4  1  0  0  0  0
  4  5  1  0  0  0  0
  4  6  1  0  0  0  0
  6  7  1  0  0  0  0
  6  8  1  0  0  0  0
  8  9  1  0  0  0  0
  8 10  1  0  0  0  0
 10 11  1  0  0  0  0
  2 12  1  0  0  0  0
 10 12  1  0  0  0  0
 10 13  1  0  0  0  0
  8 14  1  0  0  0  0
  6 15  1  0  0  0  0
  4 16  1  0  0  0  0
  1 17  1  0  0  0  0
  1 18  1  0  0  0  0
  1 19  1  0  0  0  0
 13 20  1  0  0  0  0
 14 21  1  0  0  0  0
 15 22  1  0  0  0  0
 16 23  1  0  0  0  0
 17 24  1  0  0  0  0
M  END
