27
 xtb: 6.7.1 (edcfbbe)
C            3.29818591118769       -0.31130219827141        0.91506670568514
C            1.94932083240847       -0.17206026584289        0.30056697264875
C            1.44470518738702        1.03416234575387       -0.04798985827203
C            0.10581604941223        1.21020192351692       -0.57179113316516
O           -0.34307248050165        2.35050120933919       -0.78380455569156
C           -0.77276801641343       -0.00196100468719       -0.82057074727200
H           -1.23463545751305        0.18218341874830       -1.79938253427152
C            0.04681072765513       -1.29698377634259       -0.92201925636968
C            1.16458954324058       -1.42941283215839        0.11217098677408
C           -1.95537402053646       -0.00351402903106        0.19087482715317
C           -3.05185998510633       -0.97312599347525       -0.24915984568540
C           -1.54230589755478       -0.28262429981190        1.63670442417752
H            3.95161466488518       -0.88481314941864        0.24518322912523
H            3.23103780535136       -0.88979962832123        1.84486610703504
H            3.76105975960335        0.65582613199129        1.12309144116586
H            2.02473747308906        1.94089740962111        0.11100296634670
H           -0.61343098588869       -2.16818279017462       -0.87070555171934
H            0.51180849485577       -1.31821319868779       -1.91458740317433
H            0.77969581610710       -1.72391640669931        1.09757420510550
H            1.85162489129071       -2.23307517234152       -0.17934098658502
H           -2.37405790253222        1.01055083006349        0.14900234505782
H           -3.38129283087450       -0.76465154544015       -1.27293393566027
H           -3.92068088864260       -0.88525051545785        0.41224271158855
H           -2.71115942821427       -2.01360049848520       -0.20551572492635
H           -2.38861623323770       -0.09807663640358        2.30710125273692
H           -0.71420364805890        0.35694815241533        1.96164510887011
H           -1.24418848198373       -1.32765970020899        1.76995275492317
