23
 xtb: 6.7.1 (edcfbbe)
C           -2.34595525526670       -1.05769768744514        0.54730953002049
C           -1.50599448612160        0.00069504254499       -0.10940589329240
O           -1.77079452077977        0.39051278011871       -1.24350361065397
C           -0.36083321498414        0.58664515520887        0.69561822823166
C            0.53738670806195        1.52393241730621       -0.11738108455933
C            1.43335053466733        0.76235101759051       -1.10001088087802
C            2.25074252292608       -0.31727766298550       -0.38785762482988
C            1.34024512522812       -1.26676916036484        0.39323566182557
C            0.48513804176303       -0.49478267705196        1.39880340257488
H           -3.30019274102362       -1.15648674537287        0.02714231833556
H           -1.81426032728304       -2.01568162497517        0.48911169974852
H           -2.50491332804256       -0.84317387093082        1.60781932721094
H           -0.87565215676998        1.16488239916929        1.48024056491634
H           -0.06938237006704        2.26599376207924       -0.64602512836245
H            1.17227486471116        2.07278198080711        0.58968301815418
H            0.81557299276125        0.29131583225203       -1.87468616797692
H            2.09910798212922        1.46780750348930       -1.61061481747218
H            2.85129373933675       -0.87675602625979       -1.11443402109893
H            2.95264706009485        0.15982872319125        0.31060153464525
H            0.68675723093992       -1.80354338783277       -0.31021165441495
H            1.93556299938725       -2.02403106403103        0.91598987954723
H           -0.15063330743076       -1.17360422795213        1.97441763232653
H            1.14238420276017        0.01157133003273        2.11649146444923
