 xtb: 6.7.1 (edcfbbe)
          04062519153D

 24 24  0     0  0            999 V2000
   -2.5623   -0.8662    0.2903 C   0  0  0  0  0  0  0  0  0  0  0  0
   -1.1303   -0.4289    0.6316 C   0  0  0  0  0  0  0  0  0  0  0  0
   -1.0156   -0.3756    1.7264 H   0  0  0  0  0  0  0  0  0  0  0  0
   -0.8235    0.9594    0.0310 C   0  0  0  0  0  0  0  0  0  0  0  0
   -1.0660    0.9483   -1.0370 H   0  0  0  0  0  0  0  0  0  0  0  0
    0.6651    1.2889    0.2018 C   0  0  0  0  0  0  0  0  0  0  0  0
    0.8842    1.4157    1.2772 H   0  0  0  0  0  0  0  0  0  0  0  0
    1.5331    0.1351   -0.3133 C   0  0  0  0  0  0  0  0  0  0  0  0
    1.3913    0.0316   -1.3989 H   0  0  0  0  0  0  0  0  0  0  0  0
    1.0960   -1.1800    0.3482 C   0  0  0  0  0  0  0  0  0  0  0  0
    1.2752   -1.1046    1.4425 H   0  0  0  0  0  0  0  0  0  0  0  0
   -0.2687   -1.4290    0.1174 O   0  0  0  0  0  0  0  0  0  0  0  0
    1.8310   -2.2058   -0.2104 O   0  0  0  0  0  0  0  0  0  0  0  0
    2.8693    0.4419   -0.0073 O   0  0  0  0  0  0  0  0  0  0  0  0
    0.9463    2.4804   -0.4844 O   0  0  0  0  0  0  0  0  0  0  0  0
   -1.6547    1.9374    0.5936 O   0  0  0  0  0  0  0  0  0  0  0  0
   -2.7356   -1.0824   -1.0843 O   0  0  0  0  0  0  0  0  0  0  0  0
   -3.2500   -0.0663    0.5689 H   0  0  0  0  0  0  0  0  0  0  0  0
   -2.8012   -1.7749    0.8566 H   0  0  0  0  0  0  0  0  0  0  0  0
    1.4652   -3.0627    0.0595 H   0  0  0  0  0  0  0  0  0  0  0  0
    3.4367   -0.2854   -0.3029 H   0  0  0  0  0  0  0  0  0  0  0  0
    1.9044    2.6272   -0.4621 H   0  0  0  0  0  0  0  0  0  0  0  0
   -1.3382    2.1771    1.4770 H   0  0  0  0  0  0  0  0  0  0  0  0
   -2.0855   -1.7411   -1.3706 H   0  0  0  0  0  0  0  0  0  0  0  0
  1  2  1  0  0  0  0
  2  3  1  0  0  0  0
  2  4  1  0  0  0  0
  4  5  1  0  0  0  0
  4  6  1  0  0  0  0
  6  7  1  0  0  0  0
  6  8  1  0  0  0  0
  8  9  1  0  0  0  0
  8 10  1  0  0  0  0
 10 11  1  0  0  0  0
  2 12  1  0  0  0  0
 10 12  1  0  0  0  0
 10 13  1  0  0  0  0
  8 14  1  0  0  0  0
  6 15  1  0  0  0  0
  4 16  1  0  0  0  0
  1 17  1  0  0  0  0
  1 18  1  0  0  0  0
  1 19  1  0  0  0  0
 13 20  1  0  0  0  0
 14 21  1  0  0  0  0
 15 22  1  0  0  0  0
 16 23  1  0  0  0  0
 17 24  1  0  0  0  0
M  END
