 xtb: 6.7.1 (edcfbbe)
          04032521133D

 12 12  0     0  0            999 V2000
   -0.6779   -1.2404   -0.0001 C   0  0  0  0  0  0  0  0  0  0  0  0
   -1.2571   -2.3003   -0.0001 O   0  0  0  0  0  0  0  0  0  0  0  0
   -1.3339   -0.0312   -0.0000 N   0  0  0  0  0  0  0  0  0  0  0  0
   -0.7353    1.2074   -0.0000 C   0  0  0  0  0  0  0  0  0  0  0  0
   -1.3636    2.2389    0.0000 O   0  0  0  0  0  0  0  0  0  0  0  0
    0.6398    1.1708   -0.0000 N   0  0  0  0  0  0  0  0  0  0  0  0
    1.4132    0.0332   -0.0001 C   0  0  0  0  0  0  0  0  0  0  0  0
    2.6207    0.0615   -0.0001 O   0  0  0  0  0  0  0  0  0  0  0  0
    0.6940   -1.1395   -0.0001 N   0  0  0  0  0  0  0  0  0  0  0  0
   -2.3495   -0.0550   -0.0000 H   0  0  0  0  0  0  0  0  0  0  0  0
    1.1271    2.0623   -0.0000 H   0  0  0  0  0  0  0  0  0  0  0  0
    1.2224   -2.0072   -0.0001 H   0  0  0  0  0  0  0  0  0  0  0  0
  1  2  2  0  0  0  0
  1  3  1  0  0  0  0
  3  4  1  0  0  0  0
  4  5  2  0  0  0  0
  4  6  1  0  0  0  0
  6  7  1  0  0  0  0
  7  8  2  0  0  0  0
  1  9  1  0  0  0  0
  7  9  1  0  0  0  0
  3 10  1  0  0  0  0
  6 11  1  0  0  0  0
  9 12  1  0  0  0  0
M  END
