24
 xtb: 6.7.1 (edcfbbe)
C            3.29449865692083        1.09274424258087        0.01648694939904
N            2.27976155091126        0.04413275710632        0.01124788358187
C            2.49668782252310       -1.28673553455810        0.00605758474564
N            1.37260661441120       -2.01240917678913       -0.00339331616057
C            0.38967340195239       -1.07742177611168       -0.00415632286182
C            0.90498777975597        0.20652296284049        0.00344963135007
C            0.09425470561172        1.36642932304499        0.01018529834402
O            0.47297059182279        2.54549365745253        0.02892892413265
N           -1.28085353363682        1.05312941289205       -0.00735266196360
C           -1.83850255887023       -0.23144238515964       -0.00793954224023
O           -3.05825139694436       -0.41756361155855       -0.01180757758505
N           -0.96296971886452       -1.29941610138255       -0.00694728900672
C           -1.52926551528409       -2.65167310821994       -0.01345367361533
C           -2.19421695826935        2.20365924876758       -0.00557907956931
H            3.20769136946826        1.70688476985863       -0.88253526449998
H            3.17969980871170        1.72330534646464        0.90061271016288
H            4.27423585108200        0.61386662963013        0.03636514994247
H            3.49667365792652       -1.69958510108737        0.00806405685391
H           -2.16246767883998       -2.79587838048401        0.86488365697140
H           -0.70841972350463       -3.36578060041553        0.00854111139203
H           -2.12377258154849       -2.80547401512717       -0.91711940373202
H           -3.21563733101019        1.84160539006857       -0.08795915167072
H           -1.96518101976651        2.85478255710920       -0.85192929183995
H           -2.07898879404490        2.77099469435032        0.92156620049048
