11
 xtb: 6.7.1 (edcfbbe)
C           -2.90595301931978       -0.05762558708490        0.00197594020780
O           -1.65262692097657        0.68240936941721        0.00104802630002
C           -0.53863486516078       -0.06316455473708       -0.00134644175064
O           -0.51877859945449       -1.27468698634867       -0.00214924782632
C            0.65494638220216        0.86489200658497       -0.00370251833498
Cl           2.21606664601937       -0.03094912282185        0.00180753133171
H           -3.68514528457985        0.70291286587987        0.00353265092804
H           -2.97095333519313       -0.67740757160812        0.89861612278082
H           -2.97316798272932       -0.67603108926438       -0.89544943929509
H            0.62186823897235        1.50381225321367        0.88187302997032
H            0.62379760348360        1.49599052551701       -0.89500554811596
