13
CONF1
C -2.4084845019 0.0086004510 0.0001719452
C -0.9733175473 0.5201651306 -0.0001834921
C 0.0296793123 -0.6390657343 -0.0000442327
C 1.3956908470 -0.1577773909 -0.0001639483
C 2.5152845854 0.2656802698 0.0001858896
H -2.5980159464 -0.5992680976 -0.8820064604
H -2.5977253426 -0.5985660739 0.8828854167
H -3.1078860991 0.8409531143 -0.0000257582
H -0.8027590209 1.1417223555 -0.8820663505
H -0.8023943712 1.1422158298 0.8812838499
H -0.1256776031 -1.2613580358 -0.8857339691
H -0.1256517706 -1.2611592735 0.8857924861
H 3.5007582689 0.6240263671 0.0002740059
13
CONF2
C -1.6855796078 0.6137864105 -0.6282477679
C -1.1978363407 -0.0785029375 0.6384303345
C 0.0387166337 -0.9461338786 0.3733168114
C 1.1795982615 -0.1462814484 -0.0240522504
C 2.1105646806 0.5343772582 -0.3448842082
H -1.9672552116 -0.1198586942 -1.3808307282
H -2.5507186724 1.2365180832 -0.4138338013
H -0.8987924384 1.2424072258 -1.0398733009
H -0.9540153865 0.6720439815 1.3935418784
H -1.9915668323 -0.7136081592 1.0372275684
H -0.1800923664 -1.6663183824 -0.4198191509
H 0.3016877936 -1.5008046541 1.2780416510
H 2.9325581825 1.1207669347 -0.6279875101
