13
CONF1
C -2.4154693483 0.0049748555 0.0002160199
C -0.9848102559 0.5298448503 -0.0001553383
C 0.0334962911 -0.6244178839 -0.0001132951
C 1.4104843122 -0.1610760789 -0.0019421990
C 2.5438867053 0.2558768494 0.0018304408
H -2.6078726062 -0.6106755916 -0.8850764168
H -2.6076517476 -0.6100996343 0.8859463424
H -3.1346564386 0.8294472165 0.0000047556
H -0.8109088280 1.1565284544 -0.8816343524
H -0.8104678487 1.1570914758 0.8808391460
H -0.1327210908 -1.2590441862 -0.8797230374
H -0.1318496272 -1.2584301767 0.8800891735
H 3.5480412471 0.6161483277 0.0000881047
13
CONF2
C -1.7013642164 0.6238980237 -0.6276530529
C -1.2047433946 -0.0748190249 0.6317473078
C 0.0452200019 -0.9401519794 0.3816718403
C 1.2015286153 -0.1578186520 -0.0254614658
C 2.1448481208 0.5224388849 -0.3508416184
H -1.9636765647 -0.1065148275 -1.4011060389
H -2.5902995533 1.2262837699 -0.4165813369
H -0.9357746875 1.2905043585 -1.0393854032
H -0.9768406143 0.6617481147 1.4101930173
H -1.9866677307 -0.7315048226 1.0280393567
H -0.1748515136 -1.6852317288 -0.3935226699
H 0.2996823679 -1.4966440791 1.2914212699
H 2.9802082589 1.1162030457 -0.6474921950
