 xtb: 6.7.1 (edcfbbe)
          04062518003D

 24 24  0     0  0            999 V2000
   -1.6770   -1.3371   -0.5785 C   0  0  0  0  0  0  0  0  0  0  0  0
   -1.1439   -0.4943    0.5976 C   0  0  0  0  0  0  0  0  0  0  0  0
   -1.8960   -0.4880    1.3952 H   0  0  0  0  0  0  0  0  0  0  0  0
   -0.8794    0.9765    0.1855 C   0  0  0  0  0  0  0  0  0  0  0  0
   -1.2410    1.1371   -0.8356 H   0  0  0  0  0  0  0  0  0  0  0  0
    0.6266    1.2693    0.2228 C   0  0  0  0  0  0  0  0  0  0  0  0
    0.9399    1.3783    1.2779 H   0  0  0  0  0  0  0  0  0  0  0  0
    1.4004    0.0936   -0.3940 C   0  0  0  0  0  0  0  0  0  0  0  0
    1.0393   -0.0867   -1.4115 H   0  0  0  0  0  0  0  0  0  0  0  0
    1.1675   -1.1729    0.4482 C   0  0  0  0  0  0  0  0  0  0  0  0
    1.9624   -1.2572    1.2071 H   0  0  0  0  0  0  0  0  0  0  0  0
   -0.0120   -1.0971    1.2155 O   0  0  0  0  0  0  0  0  0  0  0  0
    1.1840   -2.2731   -0.4021 O   0  0  0  0  0  0  0  0  0  0  0  0
    2.7584    0.4120   -0.5380 O   0  0  0  0  0  0  0  0  0  0  0  0
    0.8946    2.4619   -0.4675 O   0  0  0  0  0  0  0  0  0  0  0  0
   -1.6184    1.8749    0.9725 O   0  0  0  0  0  0  0  0  0  0  0  0
   -2.7876   -0.7492   -1.2024 O   0  0  0  0  0  0  0  0  0  0  0  0
   -1.9149   -2.3423   -0.2085 H   0  0  0  0  0  0  0  0  0  0  0  0
   -0.9120   -1.4280   -1.3519 H   0  0  0  0  0  0  0  0  0  0  0  0
    1.1799   -3.0983    0.1070 H   0  0  0  0  0  0  0  0  0  0  0  0
    3.1856    0.4746    0.3302 H   0  0  0  0  0  0  0  0  0  0  0  0
    1.7930    2.4062   -0.8344 H   0  0  0  0  0  0  0  0  0  0  0  0
   -1.2355    1.9312    1.8604 H   0  0  0  0  0  0  0  0  0  0  0  0
   -3.5240   -0.6932   -0.5769 H   0  0  0  0  0  0  0  0  0  0  0  0
  1  2  1  0  0  0  0
  2  3  1  0  0  0  0
  2  4  1  0  0  0  0
  4  5  1  0  0  0  0
  4  6  1  0  0  0  0
  6  7  1  0  0  0  0
  6  8  1  0  0  0  0
  8  9  1  0  0  0  0
  8 10  1  0  0  0  0
 10 11  1  0  0  0  0
  2 12  1  0  0  0  0
 10 12  1  0  0  0  0
 10 13  1  0  0  0  0
  8 14  1  0  0  0  0
  6 15  1  0  0  0  0
  4 16  1  0  0  0  0
  1 17  1  0  0  0  0
  1 18  1  0  0  0  0
  1 19  1  0  0  0  0
 13 20  1  0  0  0  0
 14 21  1  0  0  0  0
 15 22  1  0  0  0  0
 16 23  1  0  0  0  0
 17 24  1  0  0  0  0
M  END
