 xtb: 6.7.1 (edcfbbe)
          04042518543D

 15 14  0     0  0            999 V2000
    1.3857   -1.2052    0.1662 C   0  0  0  0  0  0  0  0  0  0  0  0
    0.4308   -0.1387   -0.3697 C   0  0  0  0  0  0  0  0  0  0  0  0
    0.9295    1.2559    0.0154 C   0  0  0  0  0  0  0  0  0  0  0  0
   -0.9690   -0.3929    0.1269 C   0  0  0  0  0  0  0  0  0  0  0  0
   -1.9852    0.4446    0.0320 C   0  0  0  0  0  0  0  0  0  0  0  0
    1.4255   -1.1630    1.2529 H   0  0  0  0  0  0  0  0  0  0  0  0
    2.3899   -1.0470   -0.2201 H   0  0  0  0  0  0  0  0  0  0  0  0
    1.0571   -2.1988   -0.1305 H   0  0  0  0  0  0  0  0  0  0  0  0
    0.4183   -0.2070   -1.4655 H   0  0  0  0  0  0  0  0  0  0  0  0
    0.9061    1.3770    1.0962 H   0  0  0  0  0  0  0  0  0  0  0  0
    1.9521    1.3952   -0.3275 H   0  0  0  0  0  0  0  0  0  0  0  0
    0.3119    2.0291   -0.4317 H   0  0  0  0  0  0  0  0  0  0  0  0
   -1.1241   -1.3598    0.5883 H   0  0  0  0  0  0  0  0  0  0  0  0
   -2.9617    0.1924    0.4096 H   0  0  0  0  0  0  0  0  0  0  0  0
   -1.8934    1.4162   -0.4236 H   0  0  0  0  0  0  0  0  0  0  0  0
  1  2  1  0  0  0  0
  2  3  1  0  0  0  0
  2  4  1  0  0  0  0
  4  5  2  0  0  0  0
  1  6  1  0  0  0  0
  1  7  1  0  0  0  0
  1  8  1  0  0  0  0
  2  9  1  0  0  0  0
  3 10  1  0  0  0  0
  3 11  1  0  0  0  0
  3 12  1  0  0  0  0
  4 13  1  0  0  0  0
  5 14  1  0  0  0  0
  5 15  1  0  0  0  0
M  END
