 xtb: 6.7.1 (edcfbbe)
          04062518003D

 24 24  0     0  0            999 V2000
   -2.4405   -0.5462   -0.4632 C   0  0  0  0  0  0  0  0  0  0  0  0
   -1.3435   -0.4523    0.6130 C   0  0  0  0  0  0  0  0  0  0  0  0
   -1.7710   -0.7677    1.5774 H   0  0  0  0  0  0  0  0  0  0  0  0
   -0.7822    0.9735    0.8047 C   0  0  0  0  0  0  0  0  0  0  0  0
   -1.5965    1.6904    0.6412 H   0  0  0  0  0  0  0  0  0  0  0  0
    0.3238    1.3313   -0.2094 C   0  0  0  0  0  0  0  0  0  0  0  0
    0.8713    2.1902    0.1963 H   0  0  0  0  0  0  0  0  0  0  0  0
    1.3578    0.1954   -0.3714 C   0  0  0  0  0  0  0  0  0  0  0  0
    1.3524   -0.1349   -1.4218 H   0  0  0  0  0  0  0  0  0  0  0  0
    0.9834   -1.0163    0.4953 C   0  0  0  0  0  0  0  0  0  0  0  0
    1.1091   -0.7511    1.5609 H   0  0  0  0  0  0  0  0  0  0  0  0
   -0.3482   -1.4041    0.2428 O   0  0  0  0  0  0  0  0  0  0  0  0
    1.8037   -2.0700    0.1336 O   0  0  0  0  0  0  0  0  0  0  0  0
    2.6241    0.6907   -0.0222 O   0  0  0  0  0  0  0  0  0  0  0  0
   -0.2117    1.7539   -1.4317 O   0  0  0  0  0  0  0  0  0  0  0  0
   -0.2452    1.1261    2.1015 O   0  0  0  0  0  0  0  0  0  0  0  0
   -1.9143   -0.4175   -1.7628 O   0  0  0  0  0  0  0  0  0  0  0  0
   -3.1658    0.2579   -0.3363 H   0  0  0  0  0  0  0  0  0  0  0  0
   -2.9478   -1.5107   -0.3588 H   0  0  0  0  0  0  0  0  0  0  0  0
    1.5064   -2.8838    0.5692 H   0  0  0  0  0  0  0  0  0  0  0  0
    3.2755   -0.0210   -0.1148 H   0  0  0  0  0  0  0  0  0  0  0  0
   -0.8392    1.0754   -1.7646 H   0  0  0  0  0  0  0  0  0  0  0  0
   -0.9510    1.3213    2.7347 H   0  0  0  0  0  0  0  0  0  0  0  0
   -1.3052   -1.1580   -1.9076 H   0  0  0  0  0  0  0  0  0  0  0  0
  1  2  1  0  0  0  0
  2  3  1  0  0  0  0
  2  4  1  0  0  0  0
  4  5  1  0  0  0  0
  4  6  1  0  0  0  0
  6  7  1  0  0  0  0
  6  8  1  0  0  0  0
  8  9  1  0  0  0  0
  8 10  1  0  0  0  0
 10 11  1  0  0  0  0
  2 12  1  0  0  0  0
 10 12  1  0  0  0  0
 10 13  1  0  0  0  0
  8 14  1  0  0  0  0
  6 15  1  0  0  0  0
  4 16  1  0  0  0  0
  1 17  1  0  0  0  0
  1 18  1  0  0  0  0
  1 19  1  0  0  0  0
 13 20  1  0  0  0  0
 14 21  1  0  0  0  0
 15 22  1  0  0  0  0
 16 23  1  0  0  0  0
 17 24  1  0  0  0  0
M  END
