18
 xtb: 6.7.1 (edcfbbe)
C            1.89923348307022       -1.04603113366650        0.07690117022815
C            1.09954766508192        0.18710078829862        0.48838283453376
C           -0.36661961092445        0.20657826339558        0.02677062663101
C           -1.02850954886881        1.50510358003953        0.46533383184945
C           -1.14908097012650       -0.99802087394676        0.54191154632483
O           -0.42421575335909        0.22399637385699       -1.43025338705239
H            2.94071267762460       -0.94392181511634        0.39734300122018
H            1.90850818952566       -1.18266387834101       -1.01037117321328
H            1.50394832741756       -1.95965197710772        0.53092653439032
H            1.58274882300799        1.08754753982055        0.08921355347643
H            1.10913504790968        0.28031616769343        1.58133580534501
H           -0.48257703469373        2.36799206674982        0.07035487640190
H           -2.06145951243311        1.54995732548691        0.10639670966624
H           -1.03902367739838        1.57374259044938        1.55673858539159
H           -2.20067024952090       -0.91758817007978        0.24950343598467
H           -0.75094528875303       -1.93264632003206        0.13400008893853
H           -1.09606435494719       -1.05320665103176        1.63413322209669
H           -0.09861638309098       -0.63103291380591       -1.74092253322134
