 xtb: 6.7.1 (edcfbbe)
          04052516073D

 27 27  0     0  0            999 V2000
   -3.1086    0.3032    0.6098 C   0  0  0  0  0  0  0  0  0  0  0  0
   -1.5885    0.3589    0.4540 C   0  0  0  0  0  0  0  0  0  0  0  0
   -1.1412    0.3877    1.4561 H   0  0  0  0  0  0  0  0  0  0  0  0
   -1.1226    1.5857   -0.3246 C   0  0  0  0  0  0  0  0  0  0  0  0
    0.4005    1.6694   -0.3319 C   0  0  0  0  0  0  0  0  0  0  0  0
    1.0695    0.3524   -0.8013 C   0  0  0  0  0  0  0  0  0  0  0  0
    1.6563    0.5589   -1.7020 H   0  0  0  0  0  0  0  0  0  0  0  0
    0.0338   -0.7113   -1.1874 C   0  0  0  0  0  0  0  0  0  0  0  0
   -1.0662   -0.9084   -0.1849 C   0  0  0  0  0  0  0  0  0  0  0  0
   -1.5273   -2.0071    0.0689 O   0  0  0  0  0  0  0  0  0  0  0  0
    2.0410   -0.1252    0.2557 C   0  0  0  0  0  0  0  0  0  0  0  0
    1.7659   -1.0632    1.1473 C   0  0  0  0  0  0  0  0  0  0  0  0
    3.3630    0.5830    0.2350 C   0  0  0  0  0  0  0  0  0  0  0  0
   -3.3975   -0.6273    1.0928 H   0  0  0  0  0  0  0  0  0  0  0  0
   -3.4598    1.1381    1.2092 H   0  0  0  0  0  0  0  0  0  0  0  0
   -3.5883    0.3451   -0.3657 H   0  0  0  0  0  0  0  0  0  0  0  0
   -1.5097    1.5406   -1.3438 H   0  0  0  0  0  0  0  0  0  0  0  0
   -1.5293    2.4840    0.1423 H   0  0  0  0  0  0  0  0  0  0  0  0
    0.7110    2.4954   -0.9718 H   0  0  0  0  0  0  0  0  0  0  0  0
    0.7353    1.8944    0.6828 H   0  0  0  0  0  0  0  0  0  0  0  0
   -0.4622   -0.3983   -2.1105 H   0  0  0  0  0  0  0  0  0  0  0  0
    0.5210   -1.6681   -1.3826 H   0  0  0  0  0  0  0  0  0  0  0  0
    2.4841   -1.3535    1.8959 H   0  0  0  0  0  0  0  0  0  0  0  0
    0.8286   -1.5914    1.1753 H   0  0  0  0  0  0  0  0  0  0  0  0
    3.9016    0.3346   -0.6785 H   0  0  0  0  0  0  0  0  0  0  0  0
    3.2174    1.6613    0.2511 H   0  0  0  0  0  0  0  0  0  0  0  0
    3.9730    0.2955    1.0863 H   0  0  0  0  0  0  0  0  0  0  0  0
  1  2  1  0  0  0  0
  2  3  1  0  0  0  0
  2  4  1  0  0  0  0
  4  5  1  0  0  0  0
  5  6  1  0  0  0  0
  6  7  1  0  0  0  0
  6  8  1  0  0  0  0
  2  9  1  0  0  0  0
  8  9  1  0  0  0  0
  9 10  2  0  0  0  0
  6 11  1  0  0  0  0
 11 12  2  0  0  0  0
 11 13  1  0  0  0  0
  1 14  1  0  0  0  0
  1 15  1  0  0  0  0
  1 16  1  0  0  0  0
  4 17  1  0  0  0  0
  4 18  1  0  0  0  0
  5 19  1  0  0  0  0
  5 20  1  0  0  0  0
  8 21  1  0  0  0  0
  8 22  1  0  0  0  0
 12 23  1  0  0  0  0
 12 24  1  0  0  0  0
 13 25  1  0  0  0  0
 13 26  1  0  0  0  0
 13 27  1  0  0  0  0
M  END
