 xtb: 6.7.1 (edcfbbe)
          04042516023D

 14 13  0     0  0            999 V2000
   -2.3171   -0.1981    0.5672 C   0  0  0  0  0  0  0  0  0  0  0  0
   -1.2803   -0.5840   -0.4896 C   0  0  0  0  0  0  0  0  0  0  0  0
    0.0085    0.1555   -0.2411 C   0  0  0  0  0  0  0  0  0  0  0  0
    0.1392    1.3611   -0.2818 O   0  0  0  0  0  0  0  0  0  0  0  0
    1.0040   -0.6737    0.0508 O   0  0  0  0  0  0  0  0  0  0  0  0
    2.2874   -0.1058    0.3273 C   0  0  0  0  0  0  0  0  0  0  0  0
   -1.9918   -0.5181    1.5537 H   0  0  0  0  0  0  0  0  0  0  0  0
   -2.4505    0.8809    0.5786 H   0  0  0  0  0  0  0  0  0  0  0  0
   -3.2684   -0.6699    0.3423 H   0  0  0  0  0  0  0  0  0  0  0  0
   -1.6460   -0.2970   -1.4764 H   0  0  0  0  0  0  0  0  0  0  0  0
   -1.0796   -1.6539   -0.4678 H   0  0  0  0  0  0  0  0  0  0  0  0
    2.1863    0.7173    1.0357 H   0  0  0  0  0  0  0  0  0  0  0  0
    2.7307    0.2706   -0.5951 H   0  0  0  0  0  0  0  0  0  0  0  0
    2.8830   -0.9124    0.7430 H   0  0  0  0  0  0  0  0  0  0  0  0
  1  2  1  0  0  0  0
  2  3  1  0  0  0  0
  3  4  2  0  0  0  0
  3  5  1  0  0  0  0
  5  6  1  0  0  0  0
  1  7  1  0  0  0  0
  1  8  1  0  0  0  0
  1  9  1  0  0  0  0
  2 10  1  0  0  0  0
  2 11  1  0  0  0  0
  6 12  1  0  0  0  0
  6 13  1  0  0  0  0
  6 14  1  0  0  0  0
M  END
