18
 xtb: 6.7.1 (edcfbbe)
C           -2.22465318686087       -0.04774234751437       -0.06694809337513
C           -0.76848549080806       -0.04782419620729        0.37303545751551
C            0.08105092239671       -1.17712923456457       -0.22198186900205
C            1.51341846374387       -0.73762544175890        0.09361387990202
C            1.49990094970138        0.79413297420247       -0.12850088640002
C            0.00894219147910        1.21645326572898       -0.04362197465221
H           -2.29525755541732        0.01610197500252       -1.15963735205004
H           -2.73945788667909       -0.96112548216130        0.25141559830602
H           -2.76901624776313        0.80533549895211        0.35384824047507
H           -0.72471172375514       -0.13946869166101        1.46805186994360
H           -0.17006800445961       -2.16261195077126        0.18493968388236
H           -0.07595857943900       -1.21015672367872       -1.30958407770730
H            1.73630231513174       -0.96384783974065        1.14302827691598
H            2.26616562845832       -1.24537608310150       -0.51741801766677
H            2.11669592608886        1.30984127187152        0.61293534986000
H            1.91011654512544        1.04202596015981       -1.11207321549491
H           -0.15715445435739        2.04506507635032        0.65148120012559
H           -0.34884164098546        1.54427032204532       -1.02702765950678
