 xtb: 6.7.1 (edcfbbe)
          04062518003D

 24 24  0     0  0            999 V2000
   -1.7767   -1.0471   -0.6352 C   0  0  0  0  0  0  0  0  0  0  0  0
   -1.0744   -0.5032    0.6327 C   0  0  0  0  0  0  0  0  0  0  0  0
   -1.7356   -0.6178    1.4985 H   0  0  0  0  0  0  0  0  0  0  0  0
   -0.7295    0.9894    0.5292 C   0  0  0  0  0  0  0  0  0  0  0  0
   -1.6223    1.5026    0.1563 H   0  0  0  0  0  0  0  0  0  0  0  0
    0.4317    1.2188   -0.4559 C   0  0  0  0  0  0  0  0  0  0  0  0
    0.7702    2.2645   -0.3579 H   0  0  0  0  0  0  0  0  0  0  0  0
    1.6249    0.3344   -0.0436 C   0  0  0  0  0  0  0  0  0  0  0  0
    2.3760    0.3229   -0.8417 H   0  0  0  0  0  0  0  0  0  0  0  0
    1.2228   -1.1344    0.2024 C   0  0  0  0  0  0  0  0  0  0  0  0
    2.0087   -1.5833    0.8311 H   0  0  0  0  0  0  0  0  0  0  0  0
    0.0589   -1.2944    0.9745 O   0  0  0  0  0  0  0  0  0  0  0  0
    1.1545   -1.7808   -1.0336 O   0  0  0  0  0  0  0  0  0  0  0  0
    2.2619    0.8721    1.0860 O   0  0  0  0  0  0  0  0  0  0  0  0
   -0.0462    0.9828   -1.7535 O   0  0  0  0  0  0  0  0  0  0  0  0
   -0.3853    1.4494    1.8205 O   0  0  0  0  0  0  0  0  0  0  0  0
   -2.7511   -0.1732   -1.1519 O   0  0  0  0  0  0  0  0  0  0  0  0
   -2.2932   -1.9721   -0.3667 H   0  0  0  0  0  0  0  0  0  0  0  0
   -1.0197   -1.2660   -1.3906 H   0  0  0  0  0  0  0  0  0  0  0  0
    1.0653   -2.7366   -0.9025 H   0  0  0  0  0  0  0  0  0  0  0  0
    1.5994    0.9579    1.7958 H   0  0  0  0  0  0  0  0  0  0  0  0
    0.6722    1.0823   -2.3936 H   0  0  0  0  0  0  0  0  0  0  0  0
   -0.5710    2.3958    1.8953 H   0  0  0  0  0  0  0  0  0  0  0  0
   -2.3079    0.4575   -1.7387 H   0  0  0  0  0  0  0  0  0  0  0  0
  1  2  1  0  0  0  0
  2  3  1  0  0  0  0
  2  4  1  0  0  0  0
  4  5  1  0  0  0  0
  4  6  1  0  0  0  0
  6  7  1  0  0  0  0
  6  8  1  0  0  0  0
  8  9  1  0  0  0  0
  8 10  1  0  0  0  0
 10 11  1  0  0  0  0
  2 12  1  0  0  0  0
 10 12  1  0  0  0  0
 10 13  1  0  0  0  0
  8 14  1  0  0  0  0
  6 15  1  0  0  0  0
  4 16  1  0  0  0  0
  1 17  1  0  0  0  0
  1 18  1  0  0  0  0
  1 19  1  0  0  0  0
 13 20  1  0  0  0  0
 14 21  1  0  0  0  0
 15 22  1  0  0  0  0
 16 23  1  0  0  0  0
 17 24  1  0  0  0  0
M  END
