 xtb: 6.7.1 (edcfbbe)
          04052516073D

 27 27  0     0  0            999 V2000
   -2.4810    0.5954   -1.3069 C   0  0  0  0  0  0  0  0  0  0  0  0
   -2.0516    0.4266    0.1585 C   0  0  0  0  0  0  0  0  0  0  0  0
   -2.9599    0.3826    0.7679 H   0  0  0  0  0  0  0  0  0  0  0  0
   -1.1486    1.5841    0.6310 C   0  0  0  0  0  0  0  0  0  0  0  0
    0.2781    1.1299    0.9274 C   0  0  0  0  0  0  0  0  0  0  0  0
    0.7954    0.2881   -0.2408 C   0  0  0  0  0  0  0  0  0  0  0  0
    0.5790    0.8327   -1.1641 H   0  0  0  0  0  0  0  0  0  0  0  0
    0.0261   -1.0410   -0.2391 C   0  0  0  0  0  0  0  0  0  0  0  0
   -1.3839   -0.9236    0.2701 C   0  0  0  0  0  0  0  0  0  0  0  0
   -1.9806   -1.8904    0.7101 O   0  0  0  0  0  0  0  0  0  0  0  0
    2.2860    0.0327   -0.1891 C   0  0  0  0  0  0  0  0  0  0  0  0
    2.9045   -0.3563    0.9147 C   0  0  0  0  0  0  0  0  0  0  0  0
    3.0119    0.2283   -1.4846 C   0  0  0  0  0  0  0  0  0  0  0  0
   -1.6163    0.6465   -1.9619 H   0  0  0  0  0  0  0  0  0  0  0  0
   -3.1035   -0.2423   -1.6152 H   0  0  0  0  0  0  0  0  0  0  0  0
   -3.0574    1.5106   -1.4127 H   0  0  0  0  0  0  0  0  0  0  0  0
   -1.1233    2.3534   -0.1421 H   0  0  0  0  0  0  0  0  0  0  0  0
   -1.5747    2.0333    1.5284 H   0  0  0  0  0  0  0  0  0  0  0  0
    0.9178    2.0001    1.0787 H   0  0  0  0  0  0  0  0  0  0  0  0
    0.2941    0.5346    1.8422 H   0  0  0  0  0  0  0  0  0  0  0  0
   -0.0275   -1.4645   -1.2452 H   0  0  0  0  0  0  0  0  0  0  0  0
    0.5397   -1.7794    0.3818 H   0  0  0  0  0  0  0  0  0  0  0  0
    3.9643   -0.5451    0.9321 H   0  0  0  0  0  0  0  0  0  0  0  0
    2.3857   -0.5034    1.8462 H   0  0  0  0  0  0  0  0  0  0  0  0
    2.5815   -0.4111   -2.2541 H   0  0  0  0  0  0  0  0  0  0  0  0
    2.9150    1.2610   -1.8164 H   0  0  0  0  0  0  0  0  0  0  0  0
    4.0669   -0.0085   -1.3820 H   0  0  0  0  0  0  0  0  0  0  0  0
  1  2  1  0  0  0  0
  2  3  1  0  0  0  0
  2  4  1  0  0  0  0
  4  5  1  0  0  0  0
  5  6  1  0  0  0  0
  6  7  1  0  0  0  0
  6  8  1  0  0  0  0
  2  9  1  0  0  0  0
  8  9  1  0  0  0  0
  9 10  2  0  0  0  0
  6 11  1  0  0  0  0
 11 12  2  0  0  0  0
 11 13  1  0  0  0  0
  1 14  1  0  0  0  0
  1 15  1  0  0  0  0
  1 16  1  0  0  0  0
  4 17  1  0  0  0  0
  4 18  1  0  0  0  0
  5 19  1  0  0  0  0
  5 20  1  0  0  0  0
  8 21  1  0  0  0  0
  8 22  1  0  0  0  0
 12 23  1  0  0  0  0
 12 24  1  0  0  0  0
 13 25  1  0  0  0  0
 13 26  1  0  0  0  0
 13 27  1  0  0  0  0
M  END
