 xtb: 6.7.1 (edcfbbe)
          04062518003D

 24 24  0     0  0            999 V2000
   -1.6913   -1.3554   -0.5628 C   0  0  0  0  0  0  0  0  0  0  0  0
   -1.1489   -0.4844    0.5811 C   0  0  0  0  0  0  0  0  0  0  0  0
   -1.9081   -0.4291    1.3682 H   0  0  0  0  0  0  0  0  0  0  0  0
   -0.8645    0.9621    0.1330 C   0  0  0  0  0  0  0  0  0  0  0  0
   -1.2046    1.0844   -0.9074 H   0  0  0  0  0  0  0  0  0  0  0  0
    0.6424    1.2724    0.2034 C   0  0  0  0  0  0  0  0  0  0  0  0
    0.9346    1.3853    1.2535 H   0  0  0  0  0  0  0  0  0  0  0  0
    1.4172    0.0986   -0.4019 C   0  0  0  0  0  0  0  0  0  0  0  0
    1.0375   -0.0994   -1.4163 H   0  0  0  0  0  0  0  0  0  0  0  0
    1.1616   -1.1515    0.4649 C   0  0  0  0  0  0  0  0  0  0  0  0
    1.9517   -1.2076    1.2297 H   0  0  0  0  0  0  0  0  0  0  0  0
   -0.0281   -1.0857    1.2118 O   0  0  0  0  0  0  0  0  0  0  0  0
    1.2016   -2.2649   -0.3765 O   0  0  0  0  0  0  0  0  0  0  0  0
    2.7822    0.4190   -0.4443 O   0  0  0  0  0  0  0  0  0  0  0  0
    0.9295    2.5048   -0.4013 O   0  0  0  0  0  0  0  0  0  0  0  0
   -1.5923    1.8320    0.9657 O   0  0  0  0  0  0  0  0  0  0  0  0
   -2.8509   -0.7459   -1.0779 O   0  0  0  0  0  0  0  0  0  0  0  0
   -1.9129   -2.3468   -0.1512 H   0  0  0  0  0  0  0  0  0  0  0  0
   -0.9268   -1.4597   -1.3437 H   0  0  0  0  0  0  0  0  0  0  0  0
    1.1688   -3.0815    0.1447 H   0  0  0  0  0  0  0  0  0  0  0  0
    3.2678   -0.2796   -0.9066 H   0  0  0  0  0  0  0  0  0  0  0  0
    0.9265    2.4107   -1.3651 H   0  0  0  0  0  0  0  0  0  0  0  0
   -1.3199    2.7429    0.7742 H   0  0  0  0  0  0  0  0  0  0  0  0
   -3.2685   -1.3435   -1.7145 H   0  0  0  0  0  0  0  0  0  0  0  0
  1  2  1  0  0  0  0
  2  3  1  0  0  0  0
  2  4  1  0  0  0  0
  4  5  1  0  0  0  0
  4  6  1  0  0  0  0
  6  7  1  0  0  0  0
  6  8  1  0  0  0  0
  8  9  1  0  0  0  0
  8 10  1  0  0  0  0
 10 11  1  0  0  0  0
  2 12  1  0  0  0  0
 10 12  1  0  0  0  0
 10 13  1  0  0  0  0
  8 14  1  0  0  0  0
  6 15  1  0  0  0  0
  4 16  1  0  0  0  0
  1 17  1  0  0  0  0
  1 18  1  0  0  0  0
  1 19  1  0  0  0  0
 13 20  1  0  0  0  0
 14 21  1  0  0  0  0
 15 22  1  0  0  0  0
 16 23  1  0  0  0  0
 17 24  1  0  0  0  0
M  END
