 xtb: 6.7.1 (edcfbbe)
          04062521023D

 27 27  0     0  0            999 V2000
   -3.4236    0.6435    0.1318 C   0  0  0  0  0  0  0  0  0  0  0  0
   -1.9304    0.5040    0.0807 C   0  0  0  0  0  0  0  0  0  0  0  0
   -1.1335    1.4900   -0.3083 C   0  0  0  0  0  0  0  0  0  0  0  0
    0.3582    1.4114   -0.3683 C   0  0  0  0  0  0  0  0  0  0  0  0
    0.8548   -0.0362   -0.2765 C   0  0  0  0  0  0  0  0  0  0  0  0
    0.5813   -0.5491   -1.2046 H   0  0  0  0  0  0  0  0  0  0  0  0
    0.1083   -0.7361    0.8601 C   0  0  0  0  0  0  0  0  0  0  0  0
   -1.3746   -0.8393    0.5044 C   0  0  0  0  0  0  0  0  0  0  0  0
   -1.9313   -1.1919    1.3904 H   0  0  0  0  0  0  0  0  0  0  0  0
   -1.5008   -1.8174   -0.5243 O   0  0  0  0  0  0  0  0  0  0  0  0
    2.3545   -0.0858   -0.1261 C   0  0  0  0  0  0  0  0  0  0  0  0
    3.1321   -0.3833   -1.1561 C   0  0  0  0  0  0  0  0  0  0  0  0
    2.9235    0.2281    1.2244 C   0  0  0  0  0  0  0  0  0  0  0  0
   -3.7230    1.6509   -0.1430 H   0  0  0  0  0  0  0  0  0  0  0  0
   -3.7864    0.4300    1.1367 H   0  0  0  0  0  0  0  0  0  0  0  0
   -3.9056   -0.0547   -0.5517 H   0  0  0  0  0  0  0  0  0  0  0  0
   -1.5610    2.4430   -0.5927 H   0  0  0  0  0  0  0  0  0  0  0  0
    0.7134    1.8660   -1.2961 H   0  0  0  0  0  0  0  0  0  0  0  0
    0.7697    2.0023    0.4564 H   0  0  0  0  0  0  0  0  0  0  0  0
    0.4991   -1.7447    1.0019 H   0  0  0  0  0  0  0  0  0  0  0  0
    0.2083   -0.1760    1.7895 H   0  0  0  0  0  0  0  0  0  0  0  0
   -2.4239   -1.8650   -0.8039 H   0  0  0  0  0  0  0  0  0  0  0  0
    4.2060   -0.4036   -1.0736 H   0  0  0  0  0  0  0  0  0  0  0  0
    2.7266   -0.6227   -2.1248 H   0  0  0  0  0  0  0  0  0  0  0  0
    2.4988    1.1471    1.6224 H   0  0  0  0  0  0  0  0  0  0  0  0
    2.6940   -0.5754    1.9224 H   0  0  0  0  0  0  0  0  0  0  0  0
    4.0031    0.3369    1.1677 H   0  0  0  0  0  0  0  0  0  0  0  0
  1  2  1  0  0  0  0
  2  3  2  0  0  0  0
  3  4  1  0  0  0  0
  4  5  1  0  0  0  0
  5  6  1  0  0  0  0
  5  7  1  0  0  0  0
  2  8  1  0  0  0  0
  7  8  1  0  0  0  0
  8  9  1  0  0  0  0
  8 10  1  0  0  0  0
  5 11  1  0  0  0  0
 11 12  2  0  0  0  0
 11 13  1  0  0  0  0
  1 14  1  0  0  0  0
  1 15  1  0  0  0  0
  1 16  1  0  0  0  0
  3 17  1  0  0  0  0
  4 18  1  0  0  0  0
  4 19  1  0  0  0  0
  7 20  1  0  0  0  0
  7 21  1  0  0  0  0
 10 22  1  0  0  0  0
 12 23  1  0  0  0  0
 12 24  1  0  0  0  0
 13 25  1  0  0  0  0
 13 26  1  0  0  0  0
 13 27  1  0  0  0  0
M  END
