 xtb: 6.7.1 (edcfbbe)
          04032521353D

 19 20  0     0  0            999 V2000
   -2.7407   -0.2854   -0.0001 C   0  0  0  0  0  0  0  0  0  0  0  0
   -2.3667    1.0660    0.0001 C   0  0  0  0  0  0  0  0  0  0  0  0
   -1.0454    1.4182    0.0001 C   0  0  0  0  0  0  0  0  0  0  0  0
   -0.0286    0.4383    0.0000 C   0  0  0  0  0  0  0  0  0  0  0  0
   -0.4091   -0.9321   -0.0000 C   0  0  0  0  0  0  0  0  0  0  0  0
   -1.7823   -1.2586   -0.0001 C   0  0  0  0  0  0  0  0  0  0  0  0
    0.5803   -1.9357    0.0000 C   0  0  0  0  0  0  0  0  0  0  0  0
    1.9053   -1.6007    0.0001 C   0  0  0  0  0  0  0  0  0  0  0  0
    2.2961   -0.2587    0.0000 C   0  0  0  0  0  0  0  0  0  0  0  0
    1.3600    0.7495   -0.0000 C   0  0  0  0  0  0  0  0  0  0  0  0
    1.8258    2.0274   -0.0001 O   0  0  0  0  0  0  0  0  0  0  0  0
   -3.7880   -0.5473   -0.0002 H   0  0  0  0  0  0  0  0  0  0  0  0
   -3.1302    1.8292    0.0001 H   0  0  0  0  0  0  0  0  0  0  0  0
   -0.7921    2.4690    0.0002 H   0  0  0  0  0  0  0  0  0  0  0  0
   -2.0598   -2.3025   -0.0002 H   0  0  0  0  0  0  0  0  0  0  0  0
    0.2713   -2.9700    0.0001 H   0  0  0  0  0  0  0  0  0  0  0  0
    2.6654   -2.3668    0.0001 H   0  0  0  0  0  0  0  0  0  0  0  0
    3.3405    0.0113   -0.0000 H   0  0  0  0  0  0  0  0  0  0  0  0
    1.0988    2.6668   -0.0003 H   0  0  0  0  0  0  0  0  0  0  0  0
  1  2  4  0  0  0  0
  2  3  2  0  0  0  0
  3  4  4  0  0  0  0
  4  5  4  0  0  0  0
  1  6  2  0  0  0  0
  5  6  4  0  0  0  0
  5  7  4  0  0  0  0
  7  8  2  0  0  0  0
  8  9  4  0  0  0  0
  4 10  4  0  0  0  0
  9 10  4  0  0  0  0
 10 11  1  0  0  0  0
  1 12  1  0  0  0  0
  2 13  1  0  0  0  0
  3 14  1  0  0  0  0
  6 15  1  0  0  0  0
  7 16  1  0  0  0  0
  8 17  1  0  0  0  0
  9 18  1  0  0  0  0
 11 19  1  0  0  0  0
M  END
