 xtb: 6.7.1 (edcfbbe)
          04062518003D

 24 24  0     0  0            999 V2000
   -2.5689   -0.6994   -0.2998 C   0  0  0  0  0  0  0  0  0  0  0  0
   -1.1927   -0.2807    0.2337 C   0  0  0  0  0  0  0  0  0  0  0  0
   -1.2260   -0.2285    1.3327 H   0  0  0  0  0  0  0  0  0  0  0  0
   -0.7360    1.0893   -0.3113 C   0  0  0  0  0  0  0  0  0  0  0  0
   -0.7556    1.0515   -1.4110 H   0  0  0  0  0  0  0  0  0  0  0  0
    0.7065    1.3478    0.1489 C   0  0  0  0  0  0  0  0  0  0  0  0
    0.7046    1.4748    1.2375 H   0  0  0  0  0  0  0  0  0  0  0  0
    1.6185    0.1629   -0.2155 C   0  0  0  0  0  0  0  0  0  0  0  0
    1.6794    0.0800   -1.3150 H   0  0  0  0  0  0  0  0  0  0  0  0
    1.0184   -1.1447    0.3316 C   0  0  0  0  0  0  0  0  0  0  0  0
    1.0101   -1.0988    1.4320 H   0  0  0  0  0  0  0  0  0  0  0  0
   -0.2930   -1.2992   -0.1699 O   0  0  0  0  0  0  0  0  0  0  0  0
    1.7375   -2.2686    0.0012 O   0  0  0  0  0  0  0  0  0  0  0  0
    2.9014    0.3333    0.3248 O   0  0  0  0  0  0  0  0  0  0  0  0
    1.2431    2.5436   -0.3562 O   0  0  0  0  0  0  0  0  0  0  0  0
   -1.5276    2.1424    0.1746 O   0  0  0  0  0  0  0  0  0  0  0  0
   -2.9987   -1.9121    0.2591 O   0  0  0  0  0  0  0  0  0  0  0  0
   -2.5132   -0.7791   -1.3936 H   0  0  0  0  0  0  0  0  0  0  0  0
   -3.3184    0.0409   -0.0181 H   0  0  0  0  0  0  0  0  0  0  0  0
    1.7515   -2.3852   -0.9625 H   0  0  0  0  0  0  0  0  0  0  0  0
    3.1505    1.2674    0.2267 H   0  0  0  0  0  0  0  0  0  0  0  0
    1.0747    2.6118   -1.3078 H   0  0  0  0  0  0  0  0  0  0  0  0
   -2.3666    2.1886   -0.3037 H   0  0  0  0  0  0  0  0  0  0  0  0
   -2.3077   -2.5755    0.1156 H   0  0  0  0  0  0  0  0  0  0  0  0
  1  2  1  0  0  0  0
  2  3  1  0  0  0  0
  2  4  1  0  0  0  0
  4  5  1  0  0  0  0
  4  6  1  0  0  0  0
  6  7  1  0  0  0  0
  6  8  1  0  0  0  0
  8  9  1  0  0  0  0
  8 10  1  0  0  0  0
 10 11  1  0  0  0  0
  2 12  1  0  0  0  0
 10 12  1  0  0  0  0
 10 13  1  0  0  0  0
  8 14  1  0  0  0  0
  6 15  1  0  0  0  0
  4 16  1  0  0  0  0
  1 17  1  0  0  0  0
  1 18  1  0  0  0  0
  1 19  1  0  0  0  0
 13 20  1  0  0  0  0
 14 21  1  0  0  0  0
 15 22  1  0  0  0  0
 16 23  1  0  0  0  0
 17 24  1  0  0  0  0
M  END
