 xtb: 6.7.1 (edcfbbe)
          04062518003D

 24 24  0     0  0            999 V2000
   -2.0616   -1.3986   -0.1200 C   0  0  0  0  0  0  0  0  0  0  0  0
   -1.0102   -0.5209    0.5880 C   0  0  0  0  0  0  0  0  0  0  0  0
   -1.4272   -0.1757    1.5440 H   0  0  0  0  0  0  0  0  0  0  0  0
   -0.6731    0.7268   -0.2436 C   0  0  0  0  0  0  0  0  0  0  0  0
   -0.6115    0.4746   -1.3144 H   0  0  0  0  0  0  0  0  0  0  0  0
    0.6911    1.2576    0.2107 C   0  0  0  0  0  0  0  0  0  0  0  0
    0.6626    1.4041    1.3017 H   0  0  0  0  0  0  0  0  0  0  0  0
    1.7738    0.2200   -0.1214 C   0  0  0  0  0  0  0  0  0  0  0  0
    2.0375    0.3390   -1.1841 H   0  0  0  0  0  0  0  0  0  0  0  0
    1.2537   -1.2201    0.0958 C   0  0  0  0  0  0  0  0  0  0  0  0
    2.0248   -1.7815    0.6355 H   0  0  0  0  0  0  0  0  0  0  0  0
    0.1429   -1.2729    0.9529 O   0  0  0  0  0  0  0  0  0  0  0  0
    1.0460   -1.9087   -1.0967 O   0  0  0  0  0  0  0  0  0  0  0  0
    2.9165    0.3847    0.6764 O   0  0  0  0  0  0  0  0  0  0  0  0
    1.0283    2.4580   -0.4373 O   0  0  0  0  0  0  0  0  0  0  0  0
   -1.6257    1.7432   -0.0566 O   0  0  0  0  0  0  0  0  0  0  0  0
   -3.2732   -0.6967   -0.2795 O   0  0  0  0  0  0  0  0  0  0  0  0
   -2.1903   -2.3229    0.4498 H   0  0  0  0  0  0  0  0  0  0  0  0
   -1.7212   -1.6627   -1.1241 H   0  0  0  0  0  0  0  0  0  0  0  0
    0.5562   -1.3716   -1.7372 H   0  0  0  0  0  0  0  0  0  0  0  0
    3.2609    1.2822    0.5503 H   0  0  0  0  0  0  0  0  0  0  0  0
    0.2696    3.0586   -0.3731 H   0  0  0  0  0  0  0  0  0  0  0  0
   -2.4904    1.4094   -0.3470 H   0  0  0  0  0  0  0  0  0  0  0  0
   -3.7848   -0.7411    0.5401 H   0  0  0  0  0  0  0  0  0  0  0  0
  1  2  1  0  0  0  0
  2  3  1  0  0  0  0
  2  4  1  0  0  0  0
  4  5  1  0  0  0  0
  4  6  1  0  0  0  0
  6  7  1  0  0  0  0
  6  8  1  0  0  0  0
  8  9  1  0  0  0  0
  8 10  1  0  0  0  0
 10 11  1  0  0  0  0
  2 12  1  0  0  0  0
 10 12  1  0  0  0  0
 10 13  1  0  0  0  0
  8 14  1  0  0  0  0
  6 15  1  0  0  0  0
  4 16  1  0  0  0  0
  1 17  1  0  0  0  0
  1 18  1  0  0  0  0
  1 19  1  0  0  0  0
 13 20  1  0  0  0  0
 14 21  1  0  0  0  0
 15 22  1  0  0  0  0
 16 23  1  0  0  0  0
 17 24  1  0  0  0  0
M  END
