 xtb: 6.7.1 (edcfbbe)
          04032521413D

 15 14  0     0  0            999 V2000
   -2.0549    0.0501   -0.0007 C   0  0  0  0  0  0  0  0  0  0  0  0
   -0.7050    0.6970    0.0024 C   0  0  0  0  0  0  0  0  0  0  0  0
    0.4529    0.0470   -0.0007 C   0  0  0  0  0  0  0  0  0  0  0  0
    1.7685    0.7660   -0.0000 C   0  0  0  0  0  0  0  0  0  0  0  0
    0.5334   -1.4548    0.0010 C   0  0  0  0  0  0  0  0  0  0  0  0
   -2.3714   -0.1636   -1.0228 H   0  0  0  0  0  0  0  0  0  0  0  0
   -2.0435   -0.8876    0.5497 H   0  0  0  0  0  0  0  0  0  0  0  0
   -2.7933    0.7106    0.4472 H   0  0  0  0  0  0  0  0  0  0  0  0
   -0.7043    1.7792   -0.0114 H   0  0  0  0  0  0  0  0  0  0  0  0
    1.6284    1.8437    0.0204 H   0  0  0  0  0  0  0  0  0  0  0  0
    2.3552    0.4722    0.8698 H   0  0  0  0  0  0  0  0  0  0  0  0
    2.3398    0.5046   -0.8902 H   0  0  0  0  0  0  0  0  0  0  0  0
    0.1470   -1.8578    0.9369 H   0  0  0  0  0  0  0  0  0  0  0  0
   -0.0585   -1.8736   -0.8106 H   0  0  0  0  0  0  0  0  0  0  0  0
    1.5624   -1.7833   -0.1130 H   0  0  0  0  0  0  0  0  0  0  0  0
  1  2  1  0  0  0  0
  2  3  2  0  0  0  0
  3  4  1  0  0  0  0
  3  5  1  0  0  0  0
  1  6  1  0  0  0  0
  1  7  1  0  0  0  0
  1  8  1  0  0  0  0
  2  9  1  0  0  0  0
  4 10  1  0  0  0  0
  4 11  1  0  0  0  0
  4 12  1  0  0  0  0
  5 13  1  0  0  0  0
  5 14  1  0  0  0  0
  5 15  1  0  0  0  0
M  END
