 xtb: 6.7.1 (edcfbbe)
          04062518003D

 24 24  0     0  0            999 V2000
   -2.2282   -0.9881   -0.3941 C   0  0  0  0  0  0  0  0  0  0  0  0
   -1.1869   -0.1892    0.4122 C   0  0  0  0  0  0  0  0  0  0  0  0
   -1.6659    0.2448    1.2993 H   0  0  0  0  0  0  0  0  0  0  0  0
   -0.5913    0.9593   -0.4224 C   0  0  0  0  0  0  0  0  0  0  0  0
   -0.4385    0.6352   -1.4599 H   0  0  0  0  0  0  0  0  0  0  0  0
    0.7796    1.3331    0.1645 C   0  0  0  0  0  0  0  0  0  0  0  0
    0.6473    1.5339    1.2411 H   0  0  0  0  0  0  0  0  0  0  0  0
    1.7440    0.1548   -0.0158 C   0  0  0  0  0  0  0  0  0  0  0  0
    2.1391    0.1851   -1.0361 H   0  0  0  0  0  0  0  0  0  0  0  0
    0.9851   -1.1848    0.1622 C   0  0  0  0  0  0  0  0  0  0  0  0
    1.6198   -1.8603    0.7538 H   0  0  0  0  0  0  0  0  0  0  0  0
   -0.1744   -1.0421    0.9442 O   0  0  0  0  0  0  0  0  0  0  0  0
    0.7199   -1.7107   -1.0989 O   0  0  0  0  0  0  0  0  0  0  0  0
    2.8616    0.2297    0.8245 O   0  0  0  0  0  0  0  0  0  0  0  0
    1.3174    2.4616   -0.4698 O   0  0  0  0  0  0  0  0  0  0  0  0
   -1.3936    2.1152   -0.3651 O   0  0  0  0  0  0  0  0  0  0  0  0
   -2.6986   -2.1244    0.2832 O   0  0  0  0  0  0  0  0  0  0  0  0
   -1.7755   -1.3582   -1.3161 H   0  0  0  0  0  0  0  0  0  0  0  0
   -3.0606   -0.3181   -0.6481 H   0  0  0  0  0  0  0  0  0  0  0  0
    0.4209   -2.6302   -1.0187 H   0  0  0  0  0  0  0  0  0  0  0  0
    2.5796    0.3600    1.7423 H   0  0  0  0  0  0  0  0  0  0  0  0
    0.6290    3.1461   -0.4948 H   0  0  0  0  0  0  0  0  0  0  0  0
   -2.1441    2.0373   -0.9685 H   0  0  0  0  0  0  0  0  0  0  0  0
   -3.0549   -1.8665    1.1450 H   0  0  0  0  0  0  0  0  0  0  0  0
  1  2  1  0  0  0  0
  2  3  1  0  0  0  0
  2  4  1  0  0  0  0
  4  5  1  0  0  0  0
  4  6  1  0  0  0  0
  6  7  1  0  0  0  0
  6  8  1  0  0  0  0
  8  9  1  0  0  0  0
  8 10  1  0  0  0  0
 10 11  1  0  0  0  0
  2 12  1  0  0  0  0
 10 12  1  0  0  0  0
 10 13  1  0  0  0  0
  8 14  1  0  0  0  0
  6 15  1  0  0  0  0
  4 16  1  0  0  0  0
  1 17  1  0  0  0  0
  1 18  1  0  0  0  0
  1 19  1  0  0  0  0
 13 20  1  0  0  0  0
 14 21  1  0  0  0  0
 15 22  1  0  0  0  0
 16 23  1  0  0  0  0
 17 24  1  0  0  0  0
M  END
