 xtb: 6.7.1 (edcfbbe)
          04062518003D

 24 24  0     0  0            999 V2000
   -1.8010   -0.6187   -1.1259 C   0  0  0  0  0  0  0  0  0  0  0  0
   -1.2400   -0.5586    0.3037 C   0  0  0  0  0  0  0  0  0  0  0  0
   -2.0532   -0.8750    0.9714 H   0  0  0  0  0  0  0  0  0  0  0  0
   -0.8239    0.8713    0.6700 C   0  0  0  0  0  0  0  0  0  0  0  0
   -1.6353    1.5423    0.3566 H   0  0  0  0  0  0  0  0  0  0  0  0
    0.4453    1.3139   -0.0799 C   0  0  0  0  0  0  0  0  0  0  0  0
    1.0024    1.9709    0.6034 H   0  0  0  0  0  0  0  0  0  0  0  0
    1.3605    0.1235   -0.4071 C   0  0  0  0  0  0  0  0  0  0  0  0
    1.1174   -0.2647   -1.4089 H   0  0  0  0  0  0  0  0  0  0  0  0
    1.1149   -1.0124    0.5914 C   0  0  0  0  0  0  0  0  0  0  0  0
    1.3060   -0.6378    1.6161 H   0  0  0  0  0  0  0  0  0  0  0  0
   -0.2010   -1.5087    0.5032 O   0  0  0  0  0  0  0  0  0  0  0  0
    1.9821   -2.0474    0.2757 O   0  0  0  0  0  0  0  0  0  0  0  0
    2.6928    0.5638   -0.3631 O   0  0  0  0  0  0  0  0  0  0  0  0
    0.0596    2.0070   -1.2400 O   0  0  0  0  0  0  0  0  0  0  0  0
   -0.5626    1.0041    2.0482 O   0  0  0  0  0  0  0  0  0  0  0  0
   -3.1195   -0.1234   -1.0726 O   0  0  0  0  0  0  0  0  0  0  0  0
   -1.7851   -1.6661   -1.4529 H   0  0  0  0  0  0  0  0  0  0  0  0
   -1.1866   -0.0135   -1.7997 H   0  0  0  0  0  0  0  0  0  0  0  0
    1.7190   -2.8461    0.7576 H   0  0  0  0  0  0  0  0  0  0  0  0
    3.2768   -0.2078   -0.4243 H   0  0  0  0  0  0  0  0  0  0  0  0
    0.8396    2.4256   -1.6326 H   0  0  0  0  0  0  0  0  0  0  0  0
   -1.3844    0.8916    2.5482 H   0  0  0  0  0  0  0  0  0  0  0  0
   -3.4791   -0.0760   -1.9696 H   0  0  0  0  0  0  0  0  0  0  0  0
  1  2  1  0  0  0  0
  2  3  1  0  0  0  0
  2  4  1  0  0  0  0
  4  5  1  0  0  0  0
  4  6  1  0  0  0  0
  6  7  1  0  0  0  0
  6  8  1  0  0  0  0
  8  9  1  0  0  0  0
  8 10  1  0  0  0  0
 10 11  1  0  0  0  0
  2 12  1  0  0  0  0
 10 12  1  0  0  0  0
 10 13  1  0  0  0  0
  8 14  1  0  0  0  0
  6 15  1  0  0  0  0
  4 16  1  0  0  0  0
  1 17  1  0  0  0  0
  1 18  1  0  0  0  0
  1 19  1  0  0  0  0
 13 20  1  0  0  0  0
 14 21  1  0  0  0  0
 15 22  1  0  0  0  0
 16 23  1  0  0  0  0
 17 24  1  0  0  0  0
M  END
