12
 xtb: 6.7.1 (edcfbbe)
C            1.75039272505926       -0.31441814513237       -0.22383491140240
C            0.56759429057425        0.58137628449939        0.15933352568901
C           -0.68368046708817       -0.20761734556872        0.38528836564730
C           -1.82440566280263       -0.04653952817176       -0.28375569655796
H            1.94594193459677       -1.05888364057687        0.55538979781382
H            2.66024475438054        0.27844948832716       -0.35962637600584
H            1.54878875840220       -0.84895295072906       -1.15784945805037
H            0.39437651768081        1.33476971975027       -0.61771362929212
H            0.82138443603583        1.12063898287385        1.08236944493178
H           -0.62403902960666       -0.97938474075425        1.15503402762583
H           -2.69634726453975       -0.66025284256639       -0.07511228744165
H           -1.92098392489025        0.70875732643304       -1.06131869777788
