 xtb: 6.7.1 (edcfbbe)
          04062505073D

 29 29  0     0  0            999 V2000
   -3.4085   -0.5682    0.4075 C   0  0  0  0  0  0  0  0  0  0  0  0
   -2.1530   -0.2866   -0.4146 C   0  0  0  0  0  0  0  0  0  0  0  0
   -2.4283   -0.2935   -1.4738 H   0  0  0  0  0  0  0  0  0  0  0  0
   -1.0736   -1.3544   -0.1885 C   0  0  0  0  0  0  0  0  0  0  0  0
   -0.1299   -0.9746    0.9497 C   0  0  0  0  0  0  0  0  0  0  0  0
    0.6771    0.2915    0.6132 C   0  0  0  0  0  0  0  0  0  0  0  0
    0.7786    0.8875    1.5305 H   0  0  0  0  0  0  0  0  0  0  0  0
   -0.1211    1.1836   -0.3106 C   0  0  0  0  0  0  0  0  0  0  0  0
    0.3807    1.9142   -1.1434 O   0  0  0  0  0  0  0  0  0  0  0  0
   -1.6031    1.1143   -0.0715 C   0  0  0  0  0  0  0  0  0  0  0  0
    2.1127    0.0648    0.0978 C   0  0  0  0  0  0  0  0  0  0  0  0
    3.0245   -0.4500    1.2096 C   0  0  0  0  0  0  0  0  0  0  0  0
    2.1730   -0.8597   -1.1155 C   0  0  0  0  0  0  0  0  0  0  0  0
   -4.1356    0.2292    0.2757 H   0  0  0  0  0  0  0  0  0  0  0  0
   -3.8644   -1.5030    0.0910 H   0  0  0  0  0  0  0  0  0  0  0  0
   -3.1660   -0.6436    1.4647 H   0  0  0  0  0  0  0  0  0  0  0  0
   -1.5504   -2.3099    0.0337 H   0  0  0  0  0  0  0  0  0  0  0  0
   -0.4942   -1.4768   -1.1040 H   0  0  0  0  0  0  0  0  0  0  0  0
   -0.7145   -0.8116    1.8558 H   0  0  0  0  0  0  0  0  0  0  0  0
    0.5533   -1.7986    1.1504 H   0  0  0  0  0  0  0  0  0  0  0  0
   -1.7763    1.3113    0.9874 H   0  0  0  0  0  0  0  0  0  0  0  0
   -2.1081    1.8805   -0.6601 H   0  0  0  0  0  0  0  0  0  0  0  0
    2.4777    1.0495   -0.2191 H   0  0  0  0  0  0  0  0  0  0  0  0
    4.0451   -0.5305    0.8442 H   0  0  0  0  0  0  0  0  0  0  0  0
    2.7091   -1.4331    1.5496 H   0  0  0  0  0  0  0  0  0  0  0  0
    3.0186    0.2283    2.0595 H   0  0  0  0  0  0  0  0  0  0  0  0
    1.5520   -0.4698   -1.9195 H   0  0  0  0  0  0  0  0  0  0  0  0
    1.8450   -1.8645   -0.8629 H   0  0  0  0  0  0  0  0  0  0  0  0
    3.1958   -0.9188   -1.4808 H   0  0  0  0  0  0  0  0  0  0  0  0
  1  2  1  0  0  0  0
  2  3  1  0  0  0  0
  2  4  1  0  0  0  0
  4  5  1  0  0  0  0
  5  6  1  0  0  0  0
  6  7  1  0  0  0  0
  6  8  1  0  0  0  0
  8  9  2  0  0  0  0
  2 10  1  0  0  0  0
  8 10  1  0  0  0  0
  6 11  1  0  0  0  0
 11 12  1  0  0  0  0
 11 13  1  0  0  0  0
  1 14  1  0  0  0  0
  1 15  1  0  0  0  0
  1 16  1  0  0  0  0
  4 17  1  0  0  0  0
  4 18  1  0  0  0  0
  5 19  1  0  0  0  0
  5 20  1  0  0  0  0
 10 21  1  0  0  0  0
 10 22  1  0  0  0  0
 11 23  1  0  0  0  0
 12 24  1  0  0  0  0
 12 25  1  0  0  0  0
 12 26  1  0  0  0  0
 13 27  1  0  0  0  0
 13 28  1  0  0  0  0
 13 29  1  0  0  0  0
M  END
