 xtb: 6.7.1 (edcfbbe)
          04062505073D

 29 29  0     0  0            999 V2000
   -3.2679    0.3854    0.4416 C   0  0  0  0  0  0  0  0  0  0  0  0
   -2.2124   -0.0945   -0.5518 C   0  0  0  0  0  0  0  0  0  0  0  0
   -2.6841   -0.1882   -1.5346 H   0  0  0  0  0  0  0  0  0  0  0  0
   -1.6535   -1.4620   -0.1274 C   0  0  0  0  0  0  0  0  0  0  0  0
   -0.1784   -1.6023   -0.4893 C   0  0  0  0  0  0  0  0  0  0  0  0
    0.6394   -0.6112    0.3399 C   0  0  0  0  0  0  0  0  0  0  0  0
    0.6647   -0.9600    1.3794 H   0  0  0  0  0  0  0  0  0  0  0  0
   -0.0221    0.7475    0.3633 C   0  0  0  0  0  0  0  0  0  0  0  0
    0.2804    1.6107    1.1674 O   0  0  0  0  0  0  0  0  0  0  0  0
   -1.0841    0.9502   -0.6775 C   0  0  0  0  0  0  0  0  0  0  0  0
    2.1137   -0.5103   -0.1291 C   0  0  0  0  0  0  0  0  0  0  0  0
    2.2651    0.3158   -1.4049 C   0  0  0  0  0  0  0  0  0  0  0  0
    2.9897    0.0719    0.9773 C   0  0  0  0  0  0  0  0  0  0  0  0
   -2.8118    0.5870    1.4094 H   0  0  0  0  0  0  0  0  0  0  0  0
   -3.7417    1.2991    0.0906 H   0  0  0  0  0  0  0  0  0  0  0  0
   -4.0368   -0.3723    0.5711 H   0  0  0  0  0  0  0  0  0  0  0  0
   -1.7532   -1.5719    0.9553 H   0  0  0  0  0  0  0  0  0  0  0  0
   -2.2340   -2.2580   -0.5943 H   0  0  0  0  0  0  0  0  0  0  0  0
    0.1648   -2.6154   -0.2746 H   0  0  0  0  0  0  0  0  0  0  0  0
   -0.0411   -1.4257   -1.5559 H   0  0  0  0  0  0  0  0  0  0  0  0
   -1.4895    1.9593   -0.5928 H   0  0  0  0  0  0  0  0  0  0  0  0
   -0.6048    0.8489   -1.6519 H   0  0  0  0  0  0  0  0  0  0  0  0
    2.4481   -1.5329   -0.3367 H   0  0  0  0  0  0  0  0  0  0  0  0
    1.9869    1.3522   -1.2219 H   0  0  0  0  0  0  0  0  0  0  0  0
    1.6500   -0.0780   -2.2096 H   0  0  0  0  0  0  0  0  0  0  0  0
    3.3011    0.2959   -1.7345 H   0  0  0  0  0  0  0  0  0  0  0  0
    2.6228    1.0533    1.2710 H   0  0  0  0  0  0  0  0  0  0  0  0
    4.0157    0.1755    0.6328 H   0  0  0  0  0  0  0  0  0  0  0  0
    2.9836   -0.5714    1.8542 H   0  0  0  0  0  0  0  0  0  0  0  0
  1  2  1  0  0  0  0
  2  3  1  0  0  0  0
  2  4  1  0  0  0  0
  4  5  1  0  0  0  0
  5  6  1  0  0  0  0
  6  7  1  0  0  0  0
  6  8  1  0  0  0  0
  8  9  2  0  0  0  0
  2 10  1  0  0  0  0
  8 10  1  0  0  0  0
  6 11  1  0  0  0  0
 11 12  1  0  0  0  0
 11 13  1  0  0  0  0
  1 14  1  0  0  0  0
  1 15  1  0  0  0  0
  1 16  1  0  0  0  0
  4 17  1  0  0  0  0
  4 18  1  0  0  0  0
  5 19  1  0  0  0  0
  5 20  1  0  0  0  0
 10 21  1  0  0  0  0
 10 22  1  0  0  0  0
 11 23  1  0  0  0  0
 12 24  1  0  0  0  0
 12 25  1  0  0  0  0
 12 26  1  0  0  0  0
 13 27  1  0  0  0  0
 13 28  1  0  0  0  0
 13 29  1  0  0  0  0
M  END
