24
 xtb: 6.7.1 (edcfbbe)
C            3.32826723977698        1.06109541912277       -0.00057423253083
N            2.27681692138740        0.04120076593681        0.00044021679140
C            2.47859825156919       -1.29198727563497        0.00235627402477
N            1.34712625291372       -2.00520770516804        0.00149055709307
C            0.37620599549508       -1.05835611116605       -0.00164157278470
C            0.90254079655916        0.22155566503542       -0.00191331565289
C            0.09481975875649        1.38794930046825       -0.00284608221841
O            0.48431188930880        2.56242217687796       -0.00374368596787
N           -1.28307219200298        1.06615187698956       -0.00164411982314
C           -1.84516598665005       -0.21580484147516        0.00193941474927
O           -3.07016384058618       -0.36180273986635        0.00901668352163
N           -0.97426238734075       -1.28761287879671       -0.00477007731723
C           -1.48097797584872       -2.66283647790115        0.00039583743424
C           -2.25579977236137        2.16677471573951       -0.00096226538249
H            3.95038536323375        0.94860558007413        0.88987782870816
H            3.94485762301700        0.95306466864164       -0.89545911821434
H            2.86340133031104        2.04443644269746        0.00328205233171
H            3.47488519016054       -1.71428123049567        0.00448608704087
H           -1.17974917167206       -3.16925750677267        0.92102168461283
H           -1.08166044572298       -3.20529376367151       -0.85952008139979
H           -2.56645236884985       -2.63307639864752       -0.06028172831715
H           -1.70796492337177        3.10610061297407       -0.00273461622042
H           -2.88518780660578        2.11107919168460        0.89013573724834
H           -2.88791642311134        2.10933548529580       -0.89005297284002
