 xtb: 6.7.1 (edcfbbe)
          04062518003D

 24 24  0     0  0            999 V2000
   -2.1159   -1.1746   -0.2127 C   0  0  0  0  0  0  0  0  0  0  0  0
   -1.2658   -0.3168    0.7449 C   0  0  0  0  0  0  0  0  0  0  0  0
   -1.8661   -0.1352    1.6427 H   0  0  0  0  0  0  0  0  0  0  0  0
   -0.8985    1.0621    0.1609 C   0  0  0  0  0  0  0  0  0  0  0  0
   -1.1621    1.1175   -0.9070 H   0  0  0  0  0  0  0  0  0  0  0  0
    0.6145    1.2839    0.2528 C   0  0  0  0  0  0  0  0  0  0  0  0
    0.9125    1.3434    1.3105 H   0  0  0  0  0  0  0  0  0  0  0  0
    1.3184    0.0864   -0.3906 C   0  0  0  0  0  0  0  0  0  0  0  0
    0.9533   -0.0243   -1.4231 H   0  0  0  0  0  0  0  0  0  0  0  0
    0.9746   -1.1943    0.4065 C   0  0  0  0  0  0  0  0  0  0  0  0
    1.8002   -1.4159    1.0951 H   0  0  0  0  0  0  0  0  0  0  0  0
   -0.1342   -1.0162    1.2535 O   0  0  0  0  0  0  0  0  0  0  0  0
    0.8646   -2.3090   -0.4183 O   0  0  0  0  0  0  0  0  0  0  0  0
    2.6996    0.3542   -0.3934 O   0  0  0  0  0  0  0  0  0  0  0  0
    0.9122    2.4856   -0.4125 O   0  0  0  0  0  0  0  0  0  0  0  0
   -1.6185    2.0392    0.8674 O   0  0  0  0  0  0  0  0  0  0  0  0
   -1.5250   -1.3765   -1.4817 O   0  0  0  0  0  0  0  0  0  0  0  0
   -3.0993   -0.7108   -0.3066 H   0  0  0  0  0  0  0  0  0  0  0  0
   -2.2275   -2.1636    0.2390 H   0  0  0  0  0  0  0  0  0  0  0  0
    0.0779   -2.2126   -0.9931 H   0  0  0  0  0  0  0  0  0  0  0  0
    3.1722   -0.3658   -0.8339 H   0  0  0  0  0  0  0  0  0  0  0  0
    1.8749    2.5528   -0.4993 H   0  0  0  0  0  0  0  0  0  0  0  0
   -1.2942    2.9128    0.5997 H   0  0  0  0  0  0  0  0  0  0  0  0
   -1.8122   -0.6928   -2.1009 H   0  0  0  0  0  0  0  0  0  0  0  0
  1  2  1  0  0  0  0
  2  3  1  0  0  0  0
  2  4  1  0  0  0  0
  4  5  1  0  0  0  0
  4  6  1  0  0  0  0
  6  7  1  0  0  0  0
  6  8  1  0  0  0  0
  8  9  1  0  0  0  0
  8 10  1  0  0  0  0
 10 11  1  0  0  0  0
  2 12  1  0  0  0  0
 10 12  1  0  0  0  0
 10 13  1  0  0  0  0
  8 14  1  0  0  0  0
  6 15  1  0  0  0  0
  4 16  1  0  0  0  0
  1 17  1  0  0  0  0
  1 18  1  0  0  0  0
  1 19  1  0  0  0  0
 13 20  1  0  0  0  0
 14 21  1  0  0  0  0
 15 22  1  0  0  0  0
 16 23  1  0  0  0  0
 17 24  1  0  0  0  0
M  END
