26
 xtb: 6.7.1 (edcfbbe)
C           -4.07220467808630       -0.39192106101199       -0.00271291486613
C           -3.93819490103222        0.99599475745230       -0.00228361169983
C           -2.67411182020337        1.57049307331493       -0.00063832890313
C           -1.53422617965001        0.76309344222628        0.00042541491082
C           -1.66825074988274       -0.63796273820392        0.00006386575017
C           -2.94411482579211       -1.20346285268084       -0.00139636101451
C           -0.47453305058858       -1.52515991505292        0.00099750029212
O           -0.61581683685919       -2.75916793355682        0.00229897525175
C            0.83807576604738       -0.89856777579639        0.00066749568710
C            1.99848750589478       -1.69149542117957        0.00000099819366
C            3.25399678992468       -1.12905781820585       -0.00106196923835
C            3.40802622071300        0.27735486543452       -0.00131044323836
C            2.24967658115263        1.08193705124966       -0.00028768813423
C            0.99047616894004        0.50724244273979        0.00060169542636
C           -0.19752468330078        1.39780791706074        0.00172122211120
O           -0.07659815650778        2.62420322671109        0.00352726285387
N            4.63559702781233        0.83952444228272       -0.00215972616520
H           -5.05980141318479       -0.84113492736220       -0.00408340909487
H           -4.82020837921772        1.62756623575666       -0.00326444196397
H           -2.55974135718204        2.64862738592922       -0.00031490873409
H           -3.04567811202032       -2.28267741194714       -0.00168757303741
H            1.89523700314240       -2.77123151009957        0.00004057109458
H            4.13923767239626       -1.75765931886830       -0.00182835179069
H            2.34969747101818        2.16227170586453       -0.00032435347961
H            4.73988419866750        1.84092781036861       -0.00407371055998
H            5.46237307308257        0.26481531022527       -0.00454935007285
