 xtb: 6.7.1 (edcfbbe)
          04032521483D

 11 10  0     0  0            999 V2000
   -2.3873   -0.1859    0.0916 C   0  0  0  0  0  0  0  0  0  0  0  0
   -0.9162   -0.2799    0.1636 C   0  0  0  0  0  0  0  0  0  0  0  0
   -0.0556    0.6029   -0.3637 C   0  0  0  0  0  0  0  0  0  0  0  0
    1.3767    0.4311   -0.2493 C   0  0  0  0  0  0  0  0  0  0  0  0
    1.9428   -0.4913    0.3115 O   0  0  0  0  0  0  0  0  0  0  0  0
   -2.8008   -0.1646    1.0988 H   0  0  0  0  0  0  0  0  0  0  0  0
   -2.7858   -1.0754   -0.3942 H   0  0  0  0  0  0  0  0  0  0  0  0
   -2.7049    0.6994   -0.4513 H   0  0  0  0  0  0  0  0  0  0  0  0
   -0.5030   -1.1342    0.6868 H   0  0  0  0  0  0  0  0  0  0  0  0
   -0.4005    1.4768   -0.8951 H   0  0  0  0  0  0  0  0  0  0  0  0
    1.9779    1.2269   -0.7264 H   0  0  0  0  0  0  0  0  0  0  0  0
  1  2  1  0  0  0  0
  2  3  2  0  0  0  0
  3  4  1  0  0  0  0
  4  5  2  0  0  0  0
  1  6  1  0  0  0  0
  1  7  1  0  0  0  0
  1  8  1  0  0  0  0
  2  9  1  0  0  0  0
  3 10  1  0  0  0  0
  4 11  1  0  0  0  0
M  END
