 xtb: 6.7.1 (edcfbbe)
          04062520053D

 27 27  0     0  0            999 V2000
   -2.4579    1.0743    1.2083 C   0  0  0  0  0  0  0  0  0  0  0  0
   -1.4643    0.4947    0.2518 C   0  0  0  0  0  0  0  0  0  0  0  0
   -0.7059    1.2068   -0.5714 C   0  0  0  0  0  0  0  0  0  0  0  0
    0.2954    0.5128   -1.4356 C   0  0  0  0  0  0  0  0  0  0  0  0
    1.0851   -0.4940   -0.5722 C   0  0  0  0  0  0  0  0  0  0  0  0
    1.7468   -1.0567   -1.2379 H   0  0  0  0  0  0  0  0  0  0  0  0
    0.1211   -1.4857    0.0994 C   0  0  0  0  0  0  0  0  0  0  0  0
   -1.3415   -1.0097    0.1916 C   0  0  0  0  0  0  0  0  0  0  0  0
   -1.8054   -1.4597    1.0846 H   0  0  0  0  0  0  0  0  0  0  0  0
   -2.0071   -1.5265   -0.9618 O   0  0  0  0  0  0  0  0  0  0  0  0
    1.9612    0.2639    0.4008 C   0  0  0  0  0  0  0  0  0  0  0  0
    1.5757    0.6289    1.6132 C   0  0  0  0  0  0  0  0  0  0  0  0
    3.3261    0.5989   -0.1234 C   0  0  0  0  0  0  0  0  0  0  0  0
   -3.4576    0.6862    1.0163 H   0  0  0  0  0  0  0  0  0  0  0  0
   -2.4793    2.1575    1.1259 H   0  0  0  0  0  0  0  0  0  0  0  0
   -2.1922    0.8055    2.2307 H   0  0  0  0  0  0  0  0  0  0  0  0
   -0.7625    2.2847   -0.6011 H   0  0  0  0  0  0  0  0  0  0  0  0
   -0.2150   -0.0433   -2.2261 H   0  0  0  0  0  0  0  0  0  0  0  0
    0.9734    1.2289   -1.8992 H   0  0  0  0  0  0  0  0  0  0  0  0
    0.0909   -2.4101   -0.4801 H   0  0  0  0  0  0  0  0  0  0  0  0
    0.4846   -1.7272    1.0975 H   0  0  0  0  0  0  0  0  0  0  0  0
   -2.9118   -1.1892   -0.9846 H   0  0  0  0  0  0  0  0  0  0  0  0
    2.2283    1.1850    2.2656 H   0  0  0  0  0  0  0  0  0  0  0  0
    0.6012    0.3989    2.0051 H   0  0  0  0  0  0  0  0  0  0  0  0
    3.2515    1.1098   -1.0818 H   0  0  0  0  0  0  0  0  0  0  0  0
    3.8673    1.2343    0.5720 H   0  0  0  0  0  0  0  0  0  0  0  0
    3.8985   -0.3149   -0.2796 H   0  0  0  0  0  0  0  0  0  0  0  0
  1  2  1  0  0  0  0
  2  3  2  0  0  0  0
  3  4  1  0  0  0  0
  4  5  1  0  0  0  0
  5  6  1  0  0  0  0
  5  7  1  0  0  0  0
  2  8  1  0  0  0  0
  7  8  1  0  0  0  0
  8  9  1  0  0  0  0
  8 10  1  0  0  0  0
  5 11  1  0  0  0  0
 11 12  2  0  0  0  0
 11 13  1  0  0  0  0
  1 14  1  0  0  0  0
  1 15  1  0  0  0  0
  1 16  1  0  0  0  0
  3 17  1  0  0  0  0
  4 18  1  0  0  0  0
  4 19  1  0  0  0  0
  7 20  1  0  0  0  0
  7 21  1  0  0  0  0
 10 22  1  0  0  0  0
 12 23  1  0  0  0  0
 12 24  1  0  0  0  0
 13 25  1  0  0  0  0
 13 26  1  0  0  0  0
 13 27  1  0  0  0  0
M  END
