 xtb: 6.7.1 (edcfbbe)
          04062520053D

 27 27  0     0  0            999 V2000
   -3.2996    0.6015   -0.4059 C   0  0  0  0  0  0  0  0  0  0  0  0
   -1.8803    0.4857    0.0487 C   0  0  0  0  0  0  0  0  0  0  0  0
   -1.0861    1.5141    0.3167 C   0  0  0  0  0  0  0  0  0  0  0  0
    0.3375    1.2702    0.7089 C   0  0  0  0  0  0  0  0  0  0  0  0
    0.9414    0.2722   -0.2972 C   0  0  0  0  0  0  0  0  0  0  0  0
    0.8295    0.7370   -1.2864 H   0  0  0  0  0  0  0  0  0  0  0  0
    0.1259   -1.0327   -0.2847 C   0  0  0  0  0  0  0  0  0  0  0  0
   -1.3045   -0.8916    0.2890 C   0  0  0  0  0  0  0  0  0  0  0  0
   -1.2536   -1.0351    1.3779 H   0  0  0  0  0  0  0  0  0  0  0  0
   -2.1320   -1.9499   -0.1484 O   0  0  0  0  0  0  0  0  0  0  0  0
    2.4268    0.0313   -0.1085 C   0  0  0  0  0  0  0  0  0  0  0  0
    3.0225   -1.0924   -0.4807 C   0  0  0  0  0  0  0  0  0  0  0  0
    3.2358    1.1650    0.4502 C   0  0  0  0  0  0  0  0  0  0  0  0
   -3.9246   -0.1031    0.1398 H   0  0  0  0  0  0  0  0  0  0  0  0
   -3.3818    0.3700   -1.4677 H   0  0  0  0  0  0  0  0  0  0  0  0
   -3.6668    1.6115   -0.2469 H   0  0  0  0  0  0  0  0  0  0  0  0
   -1.4274    2.5325    0.2102 H   0  0  0  0  0  0  0  0  0  0  0  0
    0.8870    2.2084    0.7040 H   0  0  0  0  0  0  0  0  0  0  0  0
    0.3888    0.8404    1.7137 H   0  0  0  0  0  0  0  0  0  0  0  0
    0.0428   -1.4196   -1.3021 H   0  0  0  0  0  0  0  0  0  0  0  0
    0.6416   -1.7865    0.3111 H   0  0  0  0  0  0  0  0  0  0  0  0
   -2.2212   -1.9003   -1.1101 H   0  0  0  0  0  0  0  0  0  0  0  0
    4.0860   -1.2224   -0.3693 H   0  0  0  0  0  0  0  0  0  0  0  0
    2.4965   -1.9249   -0.9124 H   0  0  0  0  0  0  0  0  0  0  0  0
    2.9633    1.3597    1.4857 H   0  0  0  0  0  0  0  0  0  0  0  0
    4.2951    0.9260    0.4133 H   0  0  0  0  0  0  0  0  0  0  0  0
    3.0651    2.0739   -0.1241 H   0  0  0  0  0  0  0  0  0  0  0  0
  1  2  1  0  0  0  0
  2  3  2  0  0  0  0
  3  4  1  0  0  0  0
  4  5  1  0  0  0  0
  5  6  1  0  0  0  0
  5  7  1  0  0  0  0
  2  8  1  0  0  0  0
  7  8  1  0  0  0  0
  8  9  1  0  0  0  0
  8 10  1  0  0  0  0
  5 11  1  0  0  0  0
 11 12  2  0  0  0  0
 11 13  1  0  0  0  0
  1 14  1  0  0  0  0
  1 15  1  0  0  0  0
  1 16  1  0  0  0  0
  3 17  1  0  0  0  0
  4 18  1  0  0  0  0
  4 19  1  0  0  0  0
  7 20  1  0  0  0  0
  7 21  1  0  0  0  0
 10 22  1  0  0  0  0
 12 23  1  0  0  0  0
 12 24  1  0  0  0  0
 13 25  1  0  0  0  0
 13 26  1  0  0  0  0
 13 27  1  0  0  0  0
M  END
