14
 xtb: 6.7.1 (edcfbbe)
C           -2.12907862663814       -0.52975371341379        0.71239103544550
C           -1.35532617363172       -0.34315064798672       -0.60112970237825
C           -0.00339794493584        0.24743888491595       -0.32757438632867
O            0.27432526389259        1.43358173918584       -0.40611622240908
O            0.88294548836301       -0.68747060714001        0.06865572503594
C            2.20214068680993       -0.19987467947251        0.42418907974712
H           -3.12771893144182       -0.91993922363036        0.49950829562857
H           -1.61788405985730       -1.23611542882487        1.37217912977642
H           -2.23847519379861        0.42276356703923        1.23935635038101
H           -1.88970782891292        0.34186778296970       -1.26299216204323
H           -1.23647248926513       -1.30605959339866       -1.10577999919765
H            2.76439221947911       -1.08243132701136        0.72728824547161
H            2.13226799964107        0.51038714608904        1.25165403333319
H            2.67423104174357        0.27402120132142       -0.43969250590245
