23
CONF1
C -2.9990180801 0.2542977832 0.0000029376
C -1.6379412738 -0.4337840883 -0.0000694708
C -0.5064932819 0.5929191117 -0.0004630323
C 0.9248566527 0.0251389134 -0.0000053016
C 1.1800307896 -0.8207661570 -1.2499874587
C 1.8990192641 1.2093790696 0.0004910936
C 1.1790535719 -0.8210477785 1.2499873699
H -3.7995625504 -0.4816682495 0.0005797617
H -3.1092586295 0.8823825835 0.8814137505
H -3.1098380332 0.8815660699 -0.8818931457
H -1.5632827349 -1.0698208892 0.8829764121
H -1.5635890195 -1.0701765080 -0.8828836905
H -0.6218275223 1.2315992965 0.8794433628
H -0.6216024536 1.2307666706 -0.8810010001
H 0.5725502489 -1.7217605406 -1.2432307982
H 0.9497373045 -0.2536434468 -2.1491222578
H 2.2250332552 -1.1198428407 -1.2921376465
H 1.7492935844 1.8288697612 -0.8809857487
H 2.9280548151 0.8571690452 -0.0000454480
H 1.7498007027 1.8276940118 0.8828804736
H 0.9464683570 -0.2546945277 2.1490138061
H 0.5728173389 -1.7228693565 1.2417632094
H 2.2243984173 -1.1187030906 1.2937516602
23
CONF2
C -2.4972278908 1.0081301745 -0.0043512115
C -1.7182756428 -0.2078118663 -0.4968951265
C -0.5908302689 -0.6304003602 0.4570340039
C 0.8334050666 -0.1685127112 0.0914818952
C 1.3088548445 -0.8554522366 -1.1917266280
C 0.9074524309 1.3492033541 -0.0835875588
C 1.7671818365 -0.5770681418 1.2372063410
H -2.9559392338 0.7983063033 0.9597203643
H -1.8492614934 1.8725451879 0.1064511227
H -3.2870212726 1.2604318953 -0.7089984628
H -2.4192505431 -1.0384806531 -0.6048019344
H -1.3170958258 0.0000358869 -1.4890597297
H -0.5692516812 -1.7210831742 0.5177308610
H -0.8271193339 -0.2598666066 1.4570846027
H 2.3323306369 -0.5638032453 -1.4167386854
H 1.2774677318 -1.9369162929 -1.0793109319
H 0.6873158998 -0.5824497318 -2.0404916082
H 1.9363534473 1.6535530354 -0.2647290737
H 0.5564017766 1.8543758738 0.8133705233
H 0.3066747607 1.6756818395 -0.9278824933
H 1.7305373662 -1.6524289905 1.3970767982
H 2.7939450392 -0.3002618889 1.0089623379
H 1.4780662361 -0.0835083952 2.1624374598
23
CONF5
C -2.4699942485 -0.4925834268 -0.5682090713
C -1.7547706483 0.1945349746 0.5904090293
C -0.4452169998 0.9026858004 0.2246536076
C 0.8279185707 0.0589381189 0.0055544692
C 0.7871508582 -0.7250702448 -1.3084221289
C 2.0085339987 1.0381311120 -0.0620351739
C 1.0615981326 -0.9075769667 1.1687880201
H -3.4776567521 -0.7715154383 -0.2667577002
H -2.5423437368 0.1766405092 -1.4224125318
H -1.9554235672 -1.3951261777 -0.8820369275
H -2.4267651827 0.9604147956 0.9877650990
H -1.5818337481 -0.5238224131 1.3919808640
H -0.2252633758 1.5989962484 1.0388684334
H -0.6168649930 1.5033605796 -0.6723729393
H 1.7667069640 -1.1509917709 -1.5165439060
H 0.0742248526 -1.5417418446 -1.2607626353
H 0.5150535404 -0.0749337519 -2.1364143852
H 2.1067744333 1.5888528619 0.8708161738
H 1.8652015665 1.7538790540 -0.8684634933
H 2.9386403816 0.5034136984 -0.2407647523
H 2.0356219577 -1.3816171957 1.0686994787
H 1.0341678040 -0.3778332196 2.1185109288
H 0.3083893042 -1.6909465324 1.1852418492
23
CONF4
C -2.3204973154 0.2766036073 0.9472726031
C -1.7443597931 0.5234928861 -0.4426737638
C -0.5529065424 -0.3589877122 -0.8305641885
C 0.7957699497 -0.1515212870 -0.1074578379
C 1.8903294092 -0.7590494410 -0.9963129146
C 1.1031153435 1.3330856664 0.0975105849
C 0.8326986189 -0.8761199864 1.2411616244
H -3.2840228321 0.7735080983 1.0417041964
H -2.4665035948 -0.7875085849 1.1178357115
H -1.6697136459 0.6673511959 1.7244494320
H -2.5322562277 0.3234932407 -1.1743511404
H -1.4755625635 1.5756056968 -0.5430986590
H -0.3787834304 -0.1905306363 -1.8969522127
H -0.8448773136 -1.4058818631 -0.7151371135
H 1.6746976983 -1.8045451882 -1.2058294621
H 1.9587381232 -0.2265796060 -1.9424895745
H 2.8580322953 -0.7020814946 -0.5028656984
H 1.0279554753 1.8727548205 -0.8439801365
H 2.1146825854 1.4532698688 0.4795311412
H 0.4183014433 1.7809978268 0.8122802387
H 1.8203087758 -0.7793790935 1.6880001939
H 0.1079273737 -0.4663435743 1.9360710548
H 0.6216248091 -1.9352144838 1.1100273978
23
CONF3
C -2.6822204688 0.8689517949 0.0180738203
C -1.6633595010 -0.1100881243 -0.5562984348
C -0.5893208348 -0.5033114903 0.4725440059
C 0.8643059990 -0.1604675556 0.0961914537
C 1.2841943796 -0.8993346639 -1.1768250379
C 1.0355848085 1.3484029670 -0.0940591100
C 1.7706606450 -0.6142939004 1.2465102113
H -2.1909983430 1.7843491567 0.3399734011
H -3.4292670928 1.1253094946 -0.7302125889
H -3.1920302591 0.4320503174 0.8740443550
H -2.1882050316 -1.0032207247 -0.9002979648
H -1.2032287372 0.3445418006 -1.4334396321
H -0.6412556580 -1.5785236882 0.6564719745
H -0.8135517491 -0.0081620507 1.4198666626
H 0.6872645832 -0.5891940578 -2.0302158929
H 2.3286167779 -0.6956052851 -1.4027752536
H 1.1642206423 -1.9728413969 -1.0488578639
H 0.7483409294 1.8793819998 0.8108981490
H 0.4261860033 1.7160976496 -0.9150985096
H 2.0747364498 1.5837961470 -0.3135271312
H 1.5050434181 -0.1028602395 2.1691922346
H 1.6760795701 -1.6856417468 1.4098978865
H 2.8115581470 -0.3936174464 1.0209475144
