 xtb: 6.7.1 (edcfbbe)
          04032522083D

 18 17  0     0  0            999 V2000
    0.4063    1.0588   -1.1566 C   0  0  0  0  0  0  0  0  0  0  0  0
    0.3689    0.1523    0.0803 C   0  0  0  0  0  0  0  0  0  0  0  0
    0.9456    0.8989    1.2873 C   0  0  0  0  0  0  0  0  0  0  0  0
    1.1781   -1.1252   -0.1751 C   0  0  0  0  0  0  0  0  0  0  0  0
   -0.9803   -0.1442    0.4774 O   0  0  0  0  0  0  0  0  0  0  0  0
   -1.7894   -0.8612   -0.4278 C   0  0  0  0  0  0  0  0  0  0  0  0
    0.0980    0.5207   -2.0496 H   0  0  0  0  0  0  0  0  0  0  0  0
   -0.2554    1.9096   -1.0113 H   0  0  0  0  0  0  0  0  0  0  0  0
    1.4181    1.4216   -1.3082 H   0  0  0  0  0  0  0  0  0  0  0  0
    1.9765    1.1818    1.1013 H   0  0  0  0  0  0  0  0  0  0  0  0
    0.8993    0.2622    2.1663 H   0  0  0  0  0  0  0  0  0  0  0  0
    0.3560    1.7908    1.4801 H   0  0  0  0  0  0  0  0  0  0  0  0
    1.0576   -1.8125    0.6592 H   0  0  0  0  0  0  0  0  0  0  0  0
    0.8572   -1.6192   -1.0889 H   0  0  0  0  0  0  0  0  0  0  0  0
    2.2294   -0.8728   -0.2736 H   0  0  0  0  0  0  0  0  0  0  0  0
   -1.3912   -1.8600   -0.6286 H   0  0  0  0  0  0  0  0  0  0  0  0
   -1.9213   -0.3250   -1.3719 H   0  0  0  0  0  0  0  0  0  0  0  0
   -2.7548   -0.9556    0.0657 H   0  0  0  0  0  0  0  0  0  0  0  0
  1  2  1  0  0  0  0
  2  3  1  0  0  0  0
  2  4  1  0  0  0  0
  2  5  1  0  0  0  0
  5  6  1  0  0  0  0
  1  7  1  0  0  0  0
  1  8  1  0  0  0  0
  1  9  1  0  0  0  0
  3 10  1  0  0  0  0
  3 11  1  0  0  0  0
  3 12  1  0  0  0  0
  4 13  1  0  0  0  0
  4 14  1  0  0  0  0
  4 15  1  0  0  0  0
  6 16  1  0  0  0  0
  6 17  1  0  0  0  0
  6 18  1  0  0  0  0
M  END
