19
 xtb: 6.7.1 (edcfbbe)
C           -2.99480784572765        0.64624634132088       -0.75473601741299
C           -2.27184274100406        0.36311920137580        0.56742753994967
C           -0.85047499911066       -0.08037087393151        0.33841921276486
C           -0.54798710483675       -1.43317798275594        0.14455607049003
C            0.75964768661962       -1.82744491005103       -0.12429944843260
C            1.78492119990699       -0.88909043579691       -0.20440212257803
C            1.48174808602760        0.45812637178485       -0.01050093236100
C            0.17537135229410        0.86268063990941        0.25887707963854
O            2.44730017555320        1.44124354485211       -0.07218325249485
H           -2.48427367940040        1.43698886231062       -1.31437191046103
H           -4.02577362896968        0.96660510373362       -0.57392287272218
H           -3.02089838282840       -0.25023487005300       -1.38306935947442
H           -2.81192259640817       -0.41599781994869        1.11629491542158
H           -2.27940103771205        1.26691556057196        1.18623239745319
H           -1.33930607570276       -2.17464635554168        0.20633963478204
H            0.99020678425912       -2.87849352635112       -0.27011616222800
H            2.80759172314383       -1.19215094495341       -0.41082157509271
H           -0.03465236322913        1.91851218881476        0.40677623380306
H            3.30232005100120        1.03151350719721       -0.26573295882503
