20
 xtb: 6.7.1 (edcfbbe)
C           -2.17528919404016        0.00776741100479        0.00000621564680
C           -0.87921909520084        0.81533215105904        0.00002615576585
C            0.43177451884341        0.00055568848444       -0.00000037611584
C            1.60485916048283        0.98863365077179        0.00002169797597
C            0.52224365286803       -0.88056842734610       -1.25192852486970
C            0.52225510900840       -0.88065551169533        1.25186040329574
H           -2.25765305492642       -0.63085346082864        0.88553327770020
H           -3.04105704923490        0.67848033447363       -0.00033705500675
H           -2.25732088112355       -0.63132800813734       -0.88520966891339
H           -0.86842924693519        1.47409232680854        0.87939118990863
H           -0.86842057702184        1.47413431905126       -0.87930599980697
H            1.57557319824340        1.63346493087512       -0.88646798918686
H            2.56380737998124        0.45762519549423       -0.00003727685670
H            1.57562448871788        1.63336679441255        0.88658381935312
H            0.40956391926441       -0.28088649131799       -2.16322503657259
H            1.49512167171058       -1.38367579526342       -1.29709649082047
H           -0.25149742939172       -1.65522909036141       -1.25751770936360
H            1.49497757201014       -1.38408557080438        1.29678415371740
H           -0.25174268155229       -1.65505818201366        1.25757902318924
H            0.40997545154642       -0.28098074752798        2.16320950100316
