16
 xtb: 6.7.1 (edcfbbe)
C            0.73146708119213       -1.20525122172526       -0.21885812483957
C           -0.73135484748262       -1.19939308288485        0.19762040447961
N           -1.39987964538694        0.00002899599177       -0.33863127521736
C           -0.73117134090474        1.19932883269104        0.19765567177591
C            0.73161182765323        1.20499227014658       -0.21893514560380
N            1.46782798765498       -0.00015910524455        0.21579581359935
H            0.80109694401362       -1.27243600359956       -1.31207814007216
H            1.22572148218225       -2.09085275565878        0.19416580765291
H           -1.23130813709030       -2.09522310530373       -0.18798983851189
H           -0.78357263910473       -1.23838904518277        1.30210646539289
H           -2.35451847442884        0.00009070312538        0.00758410690020
H           -1.23104501165090        2.09525325218163       -0.18783365272957
H           -0.78328385441084        1.23824417862865        1.30215229495584
H            0.80115381152855        1.27203051571945       -1.31217236196972
H            1.22602423146503        2.09057772691637        0.19393443616463
H            1.44040782825351       -0.00012274227590        1.23488717641553
