24
 xtb: 6.7.1 (edcfbbe)
C            3.32229308222001        1.07661280345541        0.00132631471780
N            2.28138453264289        0.04590091032394       -0.00132897136338
C            2.49318949522865       -1.28535111016060       -0.00132295358463
N            1.36770700854259       -2.00735312530715       -0.00174381679095
C            0.38777861998862       -1.06955151759159       -0.00209302710640
C            0.90568202503485        0.21484420063874       -0.00144865913694
C            0.08762290243944        1.37264544826774       -0.00096913065498
O            0.45320097805156        2.55583021833477       -0.00003394985176
N           -1.28671400156366        1.05363547183801       -0.00109303196579
C           -1.84283684240859       -0.23091615539986        0.00185588600637
O           -3.06234448201758       -0.41953037250356        0.00865961430547
N           -0.96453108029627       -1.29514970458599       -0.00376097247568
C           -1.52764558661292       -2.64903329176872        0.00057199846084
C           -2.20207499445044        2.20274267156442       -0.00034440657654
H            3.95161575297265        0.96576549677940       -0.88418711151318
H            2.84641099830009        2.05474017971808       -0.01163130528279
H            3.93373199854970        0.98077172445126        0.90108983726751
H            3.49250609040656       -1.70032149752780       -0.00095845551824
H           -2.17001765467177       -2.78817547298326       -0.87175588554518
H           -2.11241890406532       -2.80982511869570        0.90938894877396
H           -0.70587812937217       -3.36134162598889       -0.03497867385604
H           -3.22504489393648        1.83608864791847       -0.00827756532883
H           -2.02474968893748        2.81732368951794       -0.88595684429084
H           -2.03564882573098        2.80923348791526        0.89305611328963
