 xtb: 6.7.1 (edcfbbe)
          04032522173D

 12 11  0     0  0            999 V2000
   -1.5893   -0.1301    0.4962 C   0  0  0  0  0  0  0  0  0  0  0  0
   -0.6606    0.5104   -0.5284 C   0  0  0  0  0  0  0  0  0  0  0  0
    0.6675   -0.2351   -0.6328 C   0  0  0  0  0  0  0  0  0  0  0  0
    1.3825   -0.0772    0.5786 O   0  0  0  0  0  0  0  0  0  0  0  0
   -1.0963   -0.1689    1.4643 H   0  0  0  0  0  0  0  0  0  0  0  0
   -2.5051    0.4468    0.5926 H   0  0  0  0  0  0  0  0  0  0  0  0
   -1.8457   -1.1437    0.1964 H   0  0  0  0  0  0  0  0  0  0  0  0
   -0.4502    1.5405   -0.2368 H   0  0  0  0  0  0  0  0  0  0  0  0
   -1.1323    0.5171   -1.5118 H   0  0  0  0  0  0  0  0  0  0  0  0
    0.4768   -1.2996   -0.8248 H   0  0  0  0  0  0  0  0  0  0  0  0
    1.2525    0.1730   -1.4690 H   0  0  0  0  0  0  0  0  0  0  0  0
    2.2115   -0.5699    0.5283 H   0  0  0  0  0  0  0  0  0  0  0  0
  1  2  1  0  0  0  0
  2  3  1  0  0  0  0
  3  4  1  0  0  0  0
  1  5  1  0  0  0  0
  1  6  1  0  0  0  0
  1  7  1  0  0  0  0
  2  8  1  0  0  0  0
  2  9  1  0  0  0  0
  3 10  1  0  0  0  0
  3 11  1  0  0  0  0
  4 12  1  0  0  0  0
M  END
