 xtb: 6.7.1 (edcfbbe)
          04032521173D

 24 26  0     0  0            999 V2000
    2.8641   -0.0008    1.2477 C   0  0  0  0  0  0  0  0  0  0  0  0
    1.9741    1.2313    1.4197 C   0  0  0  0  0  0  0  0  0  0  0  0
    2.1147    1.6753    2.4048 H   0  0  0  0  0  0  0  0  0  0  0  0
    0.4999    0.7806    1.3049 C   0  0  0  0  0  0  0  0  0  0  0  0
   -0.0322    1.1737    2.1716 H   0  0  0  0  0  0  0  0  0  0  0  0
    0.4996   -0.7810    1.3050 C   0  0  0  0  0  0  0  0  0  0  0  0
   -0.0326   -1.1738    2.1717 H   0  0  0  0  0  0  0  0  0  0  0  0
    1.9735   -1.2325    1.4194 C   0  0  0  0  0  0  0  0  0  0  0  0
    2.1140   -1.6769    2.4044 H   0  0  0  0  0  0  0  0  0  0  0  0
    2.4891   -2.5181    0.2803 Cl  0  0  0  0  0  0  0  0  0  0  0  0
   -0.3847   -1.1200    0.0681 C   0  0  0  0  0  0  0  0  0  0  0  0
   -1.7804   -0.6675    0.4900 C   0  0  0  0  0  0  0  0  0  0  0  0
   -1.7800    0.6686    0.4900 C   0  0  0  0  0  0  0  0  0  0  0  0
   -0.3839    1.1201    0.0679 C   0  0  0  0  0  0  0  0  0  0  0  0
   -0.0639   -0.0002   -0.9458 C   0  0  0  0  0  0  0  0  0  0  0  0
    1.5443   -0.0007   -1.6281 Cl  0  0  0  0  0  0  0  0  0  0  0  0
   -1.2051    0.0002   -2.3212 Cl  0  0  0  0  0  0  0  0  0  0  0  0
   -0.3875    2.7597   -0.5615 Cl  0  0  0  0  0  0  0  0  0  0  0  0
   -3.0079    1.7430    0.9296 Cl  0  0  0  0  0  0  0  0  0  0  0  0
   -3.0088   -1.7409    0.9304 Cl  0  0  0  0  0  0  0  0  0  0  0  0
   -0.3897   -2.7598   -0.5608 Cl  0  0  0  0  0  0  0  0  0  0  0  0
    2.4906    2.5171    0.2811 Cl  0  0  0  0  0  0  0  0  0  0  0  0
    3.6688   -0.0010    1.9784 H   0  0  0  0  0  0  0  0  0  0  0  0
    3.3176   -0.0007    0.2592 H   0  0  0  0  0  0  0  0  0  0  0  0
  1  2  1  0  0  0  0
  2  3  1  0  0  0  0
  2  4  1  0  0  0  0
  4  5  1  0  0  0  0
  4  6  1  0  0  0  0
  6  7  1  0  0  0  0
  1  8  1  0  0  0  0
  6  8  1  0  0  0  0
  8  9  1  0  0  0  0
  8 10  1  0  0  0  0
  6 11  1  0  0  0  0
 11 12  1  0  0  0  0
 12 13  2  0  0  0  0
  4 14  1  0  0  0  0
 13 14  1  0  0  0  0
 11 15  1  0  0  0  0
 14 15  1  0  0  0  0
 15 16  1  0  0  0  0
 15 17  1  0  0  0  0
 14 18  1  0  0  0  0
 13 19  1  0  0  0  0
 12 20  1  0  0  0  0
 11 21  1  0  0  0  0
  2 22  1  0  0  0  0
  1 23  1  0  0  0  0
  1 24  1  0  0  0  0
M  END
