 xtb: 6.7.1 (edcfbbe)
          04032521413D

 15 14  0     0  0            999 V2000
   -2.0420    0.0333    0.0000 C   0  0  0  0  0  0  0  0  0  0  0  0
   -0.7037    0.7056   -0.0000 C   0  0  0  0  0  0  0  0  0  0  0  0
    0.4542    0.0546    0.0000 C   0  0  0  0  0  0  0  0  0  0  0  0
    1.7738    0.7648    0.0000 C   0  0  0  0  0  0  0  0  0  0  0  0
    0.5138   -1.4465   -0.0000 C   0  0  0  0  0  0  0  0  0  0  0  0
   -2.1515   -0.6069    0.8756 H   0  0  0  0  0  0  0  0  0  0  0  0
   -2.8435    0.7662    0.0052 H   0  0  0  0  0  0  0  0  0  0  0  0
   -2.1555   -0.5987   -0.8811 H   0  0  0  0  0  0  0  0  0  0  0  0
   -0.7074    1.7870   -0.0002 H   0  0  0  0  0  0  0  0  0  0  0  0
    2.3510    0.4839   -0.8804 H   0  0  0  0  0  0  0  0  0  0  0  0
    1.6398    1.8435    0.0003 H   0  0  0  0  0  0  0  0  0  0  0  0
    2.3513    0.4834    0.8801 H   0  0  0  0  0  0  0  0  0  0  0  0
    0.0104   -1.8485    0.8785 H   0  0  0  0  0  0  0  0  0  0  0  0
    0.0090   -1.8487   -0.8777 H   0  0  0  0  0  0  0  0  0  0  0  0
    1.5428   -1.7940   -0.0007 H   0  0  0  0  0  0  0  0  0  0  0  0
  1  2  1  0  0  0  0
  2  3  2  0  0  0  0
  3  4  1  0  0  0  0
  3  5  1  0  0  0  0
  1  6  1  0  0  0  0
  1  7  1  0  0  0  0
  1  8  1  0  0  0  0
  2  9  1  0  0  0  0
  4 10  1  0  0  0  0
  4 11  1  0  0  0  0
  4 12  1  0  0  0  0
  5 13  1  0  0  0  0
  5 14  1  0  0  0  0
  5 15  1  0  0  0  0
M  END
