31
CONF1
C 1.5039914031 2.5345938542 1.1552685406
C 1.7572672657 1.6587142984 -0.0702575865
C 2.7935688735 0.5448073175 0.2260144028
C 1.9749196745 -0.7070277415 0.1470571302
C 2.3108238509 -2.0284605642 0.3390443452
C 1.3271957101 -2.9977412089 0.1867723291
C 0.0295183186 -2.6438477901 -0.1371267284
C -0.3116650456 -1.3118007242 -0.3335795494
C 0.6734491445 -0.3445362764 -0.1984629214
O 0.5065469978 0.9821913674 -0.3884953504
O -1.6197754679 -0.9755641708 -0.6922907970
C -2.2748466165 -0.0911708930 0.1119353520
O -1.8662505787 0.2602690654 1.2026724333
N -3.4196761536 0.2888819313 -0.4599670586
C -4.3592089667 1.1862876614 0.1728752172
C 2.1460441944 2.5022520488 -1.2812835046
H 0.7299310830 3.2645327614 0.9334531570
H 1.1595918199 1.9175253060 1.9827405573
H 2.4152833066 3.0513413210 1.4403574519
H 3.5948357997 0.5395512750 -0.5141948806
H 3.2381136918 0.6709681286 1.2130390799
H 3.3192152015 -2.3040812125 0.6027829008
H 1.5705839710 -4.0377004846 0.3314640580
H -0.7403902255 -3.3907368048 -0.2456823266
H -3.6384078624 -0.0840893202 -1.3711788819
H -5.3167454362 0.6879586158 0.3200809962
H -4.4998603617 2.0755570344 -0.4401875749
H -3.9465624344 1.4726039628 1.1381390525
H 3.0669007178 3.0388087498 -1.0748730645
H 1.3569578323 3.2164022398 -1.5007230859
H 2.2865244818 1.8640698511 -2.1505403799
31
CONF3
C 2.0903610133 2.7288066994 0.9715688653
C 2.1697594151 1.7033753050 -0.1569099399
C 3.0087977264 0.4637812524 0.2441033909
C 2.0129416636 -0.6533339160 0.1813162514
C 2.1399943106 -2.0001677652 0.4375839989
C 1.0224765275 -2.8143793322 0.3054296614
C -0.1964549942 -2.2852520057 -0.0799575541
C -0.3270389454 -0.9280818001 -0.3445468404
C 0.7859170126 -0.1123606283 -0.2018281186
O 0.8165423357 1.2215581149 -0.4072733798
O -1.5408964239 -0.3804052815 -0.7766619373
C -2.5482652242 -0.2944889215 0.1330643183
O -2.4470454655 -0.6600574070 1.2904732373
N -3.6356685580 0.2347823461 -0.4320894652
C -4.8643069348 0.4770552308 0.2896881597
C 2.6762999322 2.3432883371 -1.4473173079
H 1.4319232238 3.5439643036 0.6835786020
H 1.6889658564 2.2630199480 1.8689347398
H 3.0789368025 3.1247611102 1.1825963272
H 3.8330530156 0.3001903807 -0.4505481690
H 3.4220916052 0.5712986773 1.2472483712
H 3.0888836819 -2.4135443095 0.7393402236
H 1.0992070730 -3.8705768363 0.5061901634
H -1.0669874240 -2.9154357492 -0.1750247936
H -3.5745868423 0.5119167191 -1.4000644061
H -5.0905514494 1.5426308129 0.3045144697
H -4.7269694675 0.1215281127 1.3089202853
H -5.6856294696 -0.0648375162 -0.1773319922
H 3.6781134164 2.7337180947 -1.2973354756
H 2.0157955996 3.1550345511 -1.7397550523
H 2.6920241274 1.6059118291 -2.2464543359
31
CONF2
C 2.7173342515 2.5103705906 1.1852202416
C 2.2630754251 1.7139747801 -0.0358659997
C 3.0728982413 0.4039145331 -0.2068322433
C 2.0328028049 -0.6607157497 -0.0374434151
C 2.1226595941 -2.0343610193 -0.0801605655
C 0.9696946988 -2.7847443267 0.1086399757
C -0.2476620422 -2.1682837343 0.3398756706
C -0.3426502969 -0.7831635746 0.3819589797
C 0.8084603978 -0.0324745194 0.1852813087
O 0.8787440695 1.3162218616 0.1897812505
O -1.5422714184 -0.1231966613 0.6604955645
C -2.6195966815 -0.3630068162 -0.1339922362
O -2.6009513547 -1.0964190683 -1.1059795050
N -3.6764469844 0.3195413396 0.3135528313
C -4.9648488696 0.3018338639 -0.3412731153
C 2.2946118349 2.5747114764 -1.2964920229
H 2.6579035834 1.8900368552 2.0764399099
H 3.7404092783 2.8465329346 1.0477405971
H 2.0721042420 3.3738657762 1.3222326192
H 3.5387656459 0.3499866248 -1.1911775512
H 3.8553319255 0.3189661368 0.5475271231
H 3.0701127038 -2.5167698866 -0.2586917506
H 1.0165884504 -3.8611508294 0.0774559067
H -1.1427857444 -2.7537911154 0.4797762335
H -3.5466262271 0.9105127743 1.1207332817
H -5.2212811980 1.2980775402 -0.6999933801
H -5.7306662725 -0.0460145301 0.3505904820
H -4.8997132160 -0.3813874789 -1.1856889236
H 3.3097672498 2.9049843859 -1.4939667276
H 1.6544457670 3.4430558996 -1.1661442330
H 1.9299038319 2.0023542777 -2.1464960990
31
CONF4
C 2.5800617358 2.6633765051 1.0111389431
C 2.3425738217 1.7208921168 -0.1667172977
C 3.1583457040 0.4101977140 -0.0328151198
C 2.0942992660 -0.6395223344 0.0696540852
C 2.1772639725 -2.0081914478 0.2123107649
C 0.9996061621 -2.7371672643 0.2793387244
C -0.2373372148 -2.1156950706 0.2054118821
C -0.3277472609 -0.7371474873 0.0623056971
C 0.8575388763 -0.0071353906 -0.0050861435
O 0.9374630662 1.3356133454 -0.1444631720
O -1.4927080771 0.0183965379 -0.0278323403
C -2.7529343241 -0.4715714025 0.0455872775
O -3.0591461532 -1.6410806957 0.1993450564
N -3.6195779250 0.5405977944 -0.0777431028
C -5.0533075503 0.3649486645 -0.0469560196
C 2.6064999409 2.4255026452 -1.4953169625
H 3.6154392369 2.9898542541 1.0213933445
H 1.9320040306 3.5312701605 0.9248597642
H 2.3533855102 2.1547488463 1.9452796331
H 3.7942575935 0.2463759600 -0.9032063828
H 3.7906564684 0.4238189340 0.8551595176
H 3.1354559106 -2.4987004972 0.2702186640
H 1.0352908099 -3.8088792224 0.3908865776
H -1.1407505660 -2.6997441729 0.2603445989
H -3.2423580613 1.4681768505 -0.2011301009
H -5.2560468678 -0.6946939200 0.0950736573
H -5.4936909023 0.6961420372 -0.9866838213
H -5.4840419120 0.9310003586 0.7780241759
H 3.6434065298 2.7432211608 -1.5459012944
H 1.9609458874 3.2948017073 -1.5861159478
H 2.3956148084 1.7510025129 -2.3219225410
