31
CONF1
C 1.4384642732 2.2513945398 1.2093821321
C 1.7915749241 1.6518385776 -0.1403161596
C 2.8481761280 0.5286607400 -0.0095020096
C 2.0046355034 -0.7112357114 0.0900926167
C 2.3045313922 -2.0213395428 0.4308347994
C 1.2894387180 -2.9831964197 0.3873356302
C -0.0076106102 -2.6323646822 0.0129432230
C -0.3002895661 -1.3173243826 -0.3278468880
C 0.7110465084 -0.3680034421 -0.2937926867
O 0.5560661021 0.9427210839 -0.6192955666
O -1.5845687027 -0.9721799048 -0.7584202625
C -2.2656379262 -0.0676509501 0.0482508105
O -1.8960483450 0.2332261435 1.1766511627
N -3.3522463071 0.3959122378 -0.5788281188
C -4.3170933400 1.2347933015 0.1213536741
C 2.1260250631 2.6984752548 -1.1771671170
H 0.5986576875 2.9457113821 1.1127134616
H 1.1687533551 1.4641810983 1.9214983277
H 2.2996420355 2.7972874218 1.6068180952
H 3.4918966373 0.4886413676 -0.8967521402
H 3.4847993770 0.6881172145 0.8647850449
H 3.3118026597 -2.2980094284 0.7262302518
H 1.5057030235 -4.0121242085 0.6539274708
H -0.8028696048 -3.3703313002 -0.0120187993
H -3.5855008345 0.0131916594 -1.4826097766
H -4.8340717600 0.6802559490 0.9116620626
H -5.0520298136 1.5871602219 -0.6024250808
H -3.8184298463 2.1002526956 0.5641553179
H 3.0319278897 3.2319210492 -0.8735650964
H 1.3140379226 3.4258175009 -1.2702273066
H 2.3070186244 2.2347734488 -2.1509956277
31
CONF4
C 1.8664485373 2.7602845513 1.0478641530
C 1.9658153394 1.6422128347 0.0359934291
C 2.8373098980 0.4493006907 0.4973740544
C 2.0097687280 -0.7429974725 0.1097533751
C 2.3004502944 -2.0970059891 0.0477176185
C 1.2901639919 -2.9919810091 -0.3200747858
C 0.0065713862 -2.5319402406 -0.6120453900
C -0.2762642474 -1.1723313085 -0.5529232549
C 0.7305013384 -0.2854846899 -0.1969577426
O 0.5847030816 1.0627935986 -0.1061919492
O -1.5410686736 -0.7081403407 -0.9279937807
C -2.2922039584 -0.1154753894 0.0776213048
O -1.9639907432 -0.1315476068 1.2575064719
N -3.3951165117 0.4489107614 -0.4273416596
C -4.4121364321 1.0112074964 0.4529829871
C 2.3667378094 2.1315452856 -1.3437703286
H 2.8551322507 3.2062410250 1.1921259260
H 1.1848435229 3.5409800435 0.6975670132
H 1.5137194345 2.3805542115 2.0108377841
H 3.8171489160 0.4673990181 0.0125261016
H 2.9953052545 0.4735337844 1.5824020890
H 3.2973126689 -2.4581443714 0.2806473129
H 1.5007917988 -4.0543992171 -0.3780758696
H -0.7840736996 -3.2187704279 -0.8961800391
H -3.5901953265 0.3341685829 -1.4100718604
H -4.8588517529 0.2416174235 1.0913628647
H -5.1927497892 1.4529211212 -0.1668646134
H -3.9838036435 1.7919521310 1.0870145934
H 3.3651093197 2.5769198643 -1.3002233825
H 1.6627292685 2.8870867940 -1.7037416882
H 2.3903262262 1.2990479521 -2.0546455727
31
CONF3
C 1.7086076937 2.8195625266 0.9366552919
C 1.8663505055 1.6573843686 -0.0171640728
C 2.7868238869 0.5311267556 0.5160135311
C 1.9948505781 -0.7159387727 0.2448439400
C 2.3273138687 -2.0602856845 0.3134154658
C 1.3468382841 -3.0173255269 0.0320542323
C 0.0513008473 -2.6273378644 -0.3063668651
C -0.2735067372 -1.2779268026 -0.3785688296
C 0.7035680189 -0.3300658635 -0.1048753115
O 0.5122838704 1.0142162166 -0.1405864080
O -1.5477805685 -0.8909064528 -0.8034486102
C -2.3195613059 -0.2107149419 0.1296256607
O -2.0052907224 -0.1031467067 1.3088463416
N -3.4317329077 0.2663906427 -0.4379108558
C -4.4115113989 1.0096905581 0.3435911713
C 2.2583658305 2.0945759749 -1.4165073726
H 0.9949496782 3.5502017687 0.5442429627
H 1.3653524817 2.4721537281 1.9153493788
H 2.6749991332 3.3168201179 1.0649472601
H 3.7539565575 0.5406000189 0.0054571998
H 2.9711660976 0.6479932140 1.5905600230
H 3.3337126803 -2.3659988633 0.5820540534
H 1.5898575848 -4.0734422144 0.0781890332
H -0.7161924385 -3.3627831416 -0.5248976351
H -3.5571533348 0.1550496235 -1.4323266392
H -3.9957470472 1.9538434990 0.7102501807
H -4.7543130181 0.4189806774 1.1979234328
H -5.2656290423 1.2263050944 -0.2984827084
H 3.2365238314 2.5845953812 -1.3886790067
H 1.5257347971 2.8005644448 -1.8183731636
H 2.3237329048 1.2295178190 -2.0847332400
31
CONF2
C 2.2806147744 2.2329979303 1.1517139795
C 1.9093305844 1.6310099138 -0.1913163797
C 2.8127209443 0.4272338376 -0.5525455971
C 2.0036996077 -0.7526819775 -0.0943539376
C 2.3208206595 -2.0929550308 0.0640558682
C 1.3253168218 -2.9806472983 0.4857541828
C 0.0309861211 -2.5273908776 0.7384275713
C -0.2783494680 -1.1811410080 0.5832290668
C 0.7127317685 -0.3017409997 0.1691281843
O 0.5395363397 1.0329684371 -0.0189568802
O -1.5514742889 -0.7159324168 0.9254922754
C -2.3088323991 -0.1947476585 -0.1153859651
O -1.9860567843 -0.2922815678 -1.2929625486
N -3.4127385381 0.3952595605 0.3549333353
C -4.4301647681 0.9058005143 -0.5555008358
C 1.7988731791 2.6663907264 -1.2867168748
H 2.3174039056 1.4570400898 1.9235975960
H 3.2670062676 2.7020487079 1.0854402882
H 1.5511468918 2.9930622250 1.4460537676
H 2.9903441844 0.3789719956 -1.6336680124
H 3.7830172522 0.5000672808 -0.0537023718
H 3.3268455066 -2.4489170842 -0.1352347376
H 1.5562937122 -4.0320875914 0.6185405515
H -0.7472086907 -3.2084835827 1.0672670752
H -3.5915546798 0.3688993628 1.3472334389
H -4.0193820244 1.6889162123 -1.1990132188
H -5.2380955673 1.3303557351 0.0407831975
H -4.8362033157 0.1071685447 -1.1845970824
H 2.7813266143 3.1171281332 -1.4574915145
H 1.1009125858 3.4597724368 -1.0033198798
H 1.4615322149 2.2071295642 -2.2202008656
