 xtb: 6.7.1 (edcfbbe)
          04062518003D

 24 24  0     0  0            999 V2000
   -2.4883   -0.4667   -0.2029 C   0  0  0  0  0  0  0  0  0  0  0  0
   -1.0480   -0.1948    0.2372 C   0  0  0  0  0  0  0  0  0  0  0  0
   -0.9653   -0.3832    1.3186 H   0  0  0  0  0  0  0  0  0  0  0  0
   -0.6268    1.2639   -0.0482 C   0  0  0  0  0  0  0  0  0  0  0  0
   -1.2126    1.6634   -0.8835 H   0  0  0  0  0  0  0  0  0  0  0  0
    0.8645    1.3026   -0.4594 C   0  0  0  0  0  0  0  0  0  0  0  0
    1.2460    2.3070   -0.2471 H   0  0  0  0  0  0  0  0  0  0  0  0
    1.6548    0.2814    0.3790 C   0  0  0  0  0  0  0  0  0  0  0  0
    2.6986    0.2901    0.0461 H   0  0  0  0  0  0  0  0  0  0  0  0
    1.1031   -1.1403    0.1061 C   0  0  0  0  0  0  0  0  0  0  0  0
    1.0506   -1.6835    1.0733 H   0  0  0  0  0  0  0  0  0  0  0  0
   -0.1979   -1.1039   -0.4499 O   0  0  0  0  0  0  0  0  0  0  0  0
    1.9423   -1.7716   -0.7882 O   0  0  0  0  0  0  0  0  0  0  0  0
    1.5237    0.6396    1.7325 O   0  0  0  0  0  0  0  0  0  0  0  0
    1.0498    1.1040   -1.8334 O   0  0  0  0  0  0  0  0  0  0  0  0
   -0.8965    2.1016    1.0427 O   0  0  0  0  0  0  0  0  0  0  0  0
   -2.9577   -1.7193    0.2243 O   0  0  0  0  0  0  0  0  0  0  0  0
   -2.5492   -0.3783   -1.2941 H   0  0  0  0  0  0  0  0  0  0  0  0
   -3.1359    0.2813    0.2574 H   0  0  0  0  0  0  0  0  0  0  0  0
    1.5838   -2.6395   -1.0322 H   0  0  0  0  0  0  0  0  0  0  0  0
    2.2753    0.3125    2.2459 H   0  0  0  0  0  0  0  0  0  0  0  0
    0.7930    0.1973   -2.0623 H   0  0  0  0  0  0  0  0  0  0  0  0
   -0.2883    1.8751    1.7653 H   0  0  0  0  0  0  0  0  0  0  0  0
   -2.4140   -2.4085   -0.1835 H   0  0  0  0  0  0  0  0  0  0  0  0
  1  2  1  0  0  0  0
  2  3  1  0  0  0  0
  2  4  1  0  0  0  0
  4  5  1  0  0  0  0
  4  6  1  0  0  0  0
  6  7  1  0  0  0  0
  6  8  1  0  0  0  0
  8  9  1  0  0  0  0
  8 10  1  0  0  0  0
 10 11  1  0  0  0  0
  2 12  1  0  0  0  0
 10 12  1  0  0  0  0
 10 13  1  0  0  0  0
  8 14  1  0  0  0  0
  6 15  1  0  0  0  0
  4 16  1  0  0  0  0
  1 17  1  0  0  0  0
  1 18  1  0  0  0  0
  1 19  1  0  0  0  0
 13 20  1  0  0  0  0
 14 21  1  0  0  0  0
 15 22  1  0  0  0  0
 16 23  1  0  0  0  0
 17 24  1  0  0  0  0
M  END
