 xtb: 6.7.1 (edcfbbe)
          04062518003D

 24 24  0     0  0            999 V2000
   -2.3507   -0.7825    0.7195 C   0  0  0  0  0  0  0  0  0  0  0  0
   -0.8873   -0.3115    0.7589 C   0  0  0  0  0  0  0  0  0  0  0  0
   -0.6434    0.0237    1.7789 H   0  0  0  0  0  0  0  0  0  0  0  0
   -0.6239    0.8455   -0.2164 C   0  0  0  0  0  0  0  0  0  0  0  0
   -0.7766    0.4896   -1.2408 H   0  0  0  0  0  0  0  0  0  0  0  0
    0.8308    1.3192   -0.0488 C   0  0  0  0  0  0  0  0  0  0  0  0
    0.8706    1.9993    0.8204 H   0  0  0  0  0  0  0  0  0  0  0  0
    1.7726    0.1505    0.2858 C   0  0  0  0  0  0  0  0  0  0  0  0
    2.6968    0.3086   -0.2848 H   0  0  0  0  0  0  0  0  0  0  0  0
    1.1641   -1.1864   -0.1665 C   0  0  0  0  0  0  0  0  0  0  0  0
    1.8062   -2.0161    0.1705 H   0  0  0  0  0  0  0  0  0  0  0  0
   -0.0775   -1.4442    0.4434 O   0  0  0  0  0  0  0  0  0  0  0  0
    1.0787   -1.1629   -1.5551 O   0  0  0  0  0  0  0  0  0  0  0  0
    2.0002    0.1642    1.6717 O   0  0  0  0  0  0  0  0  0  0  0  0
    1.3174    1.9727   -1.1919 O   0  0  0  0  0  0  0  0  0  0  0  0
   -1.5249    1.9084   -0.0428 O   0  0  0  0  0  0  0  0  0  0  0  0
   -2.6689   -1.4434   -0.4763 O   0  0  0  0  0  0  0  0  0  0  0  0
   -3.0082    0.0863    0.7745 H   0  0  0  0  0  0  0  0  0  0  0  0
   -2.5326   -1.4379    1.5801 H   0  0  0  0  0  0  0  0  0  0  0  0
    0.8432   -2.0385   -1.8976 H   0  0  0  0  0  0  0  0  0  0  0  0
    2.7183   -0.4435    1.9004 H   0  0  0  0  0  0  0  0  0  0  0  0
    0.6549    2.6128   -1.4925 H   0  0  0  0  0  0  0  0  0  0  0  0
   -1.4300    2.2746    0.8493 H   0  0  0  0  0  0  0  0  0  0  0  0
   -2.0595   -2.1904   -0.5685 H   0  0  0  0  0  0  0  0  0  0  0  0
  1  2  1  0  0  0  0
  2  3  1  0  0  0  0
  2  4  1  0  0  0  0
  4  5  1  0  0  0  0
  4  6  1  0  0  0  0
  6  7  1  0  0  0  0
  6  8  1  0  0  0  0
  8  9  1  0  0  0  0
  8 10  1  0  0  0  0
 10 11  1  0  0  0  0
  2 12  1  0  0  0  0
 10 12  1  0  0  0  0
 10 13  1  0  0  0  0
  8 14  1  0  0  0  0
  6 15  1  0  0  0  0
  4 16  1  0  0  0  0
  1 17  1  0  0  0  0
  1 18  1  0  0  0  0
  1 19  1  0  0  0  0
 13 20  1  0  0  0  0
 14 21  1  0  0  0  0
 15 22  1  0  0  0  0
 16 23  1  0  0  0  0
 17 24  1  0  0  0  0
M  END
