 xtb: 6.7.1 (edcfbbe)
          04062518003D

 24 24  0     0  0            999 V2000
   -2.2083   -0.9804   -0.4426 C   0  0  0  0  0  0  0  0  0  0  0  0
   -1.1772   -0.2192    0.3989 C   0  0  0  0  0  0  0  0  0  0  0  0
   -1.6915    0.1890    1.2760 H   0  0  0  0  0  0  0  0  0  0  0  0
   -0.5843    0.9382   -0.4130 C   0  0  0  0  0  0  0  0  0  0  0  0
   -0.4369    0.6141   -1.4584 H   0  0  0  0  0  0  0  0  0  0  0  0
    0.7839    1.3110    0.1779 C   0  0  0  0  0  0  0  0  0  0  0  0
    0.6893    1.4714    1.2573 H   0  0  0  0  0  0  0  0  0  0  0  0
    1.7472    0.1455   -0.0600 C   0  0  0  0  0  0  0  0  0  0  0  0
    2.0421    0.1414   -1.1203 H   0  0  0  0  0  0  0  0  0  0  0  0
    1.0182   -1.2000    0.2040 C   0  0  0  0  0  0  0  0  0  0  0  0
    1.6482   -1.8122    0.8667 H   0  0  0  0  0  0  0  0  0  0  0  0
   -0.1682   -1.0666    0.9389 O   0  0  0  0  0  0  0  0  0  0  0  0
    0.8252   -1.8228   -1.0305 O   0  0  0  0  0  0  0  0  0  0  0  0
    2.8622    0.3183    0.7730 O   0  0  0  0  0  0  0  0  0  0  0  0
    1.2349    2.5305   -0.3478 O   0  0  0  0  0  0  0  0  0  0  0  0
   -1.4721    2.0244   -0.3857 O   0  0  0  0  0  0  0  0  0  0  0  0
   -2.8892   -1.9044    0.3737 O   0  0  0  0  0  0  0  0  0  0  0  0
   -1.6963   -1.4888   -1.2690 H   0  0  0  0  0  0  0  0  0  0  0  0
   -2.8970   -0.2292   -0.8492 H   0  0  0  0  0  0  0  0  0  0  0  0
    0.5126   -2.7308   -0.8950 H   0  0  0  0  0  0  0  0  0  0  0  0
    3.5813   -0.2707    0.5025 H   0  0  0  0  0  0  0  0  0  0  0  0
    1.5516    2.4057   -1.2554 H   0  0  0  0  0  0  0  0  0  0  0  0
   -0.9441    2.8418   -0.4054 H   0  0  0  0  0  0  0  0  0  0  0  0
   -3.5838   -2.3342   -0.1453 H   0  0  0  0  0  0  0  0  0  0  0  0
  1  2  1  0  0  0  0
  2  3  1  0  0  0  0
  2  4  1  0  0  0  0
  4  5  1  0  0  0  0
  4  6  1  0  0  0  0
  6  7  1  0  0  0  0
  6  8  1  0  0  0  0
  8  9  1  0  0  0  0
  8 10  1  0  0  0  0
 10 11  1  0  0  0  0
  2 12  1  0  0  0  0
 10 12  1  0  0  0  0
 10 13  1  0  0  0  0
  8 14  1  0  0  0  0
  6 15  1  0  0  0  0
  4 16  1  0  0  0  0
  1 17  1  0  0  0  0
  1 18  1  0  0  0  0
  1 19  1  0  0  0  0
 13 20  1  0  0  0  0
 14 21  1  0  0  0  0
 15 22  1  0  0  0  0
 16 23  1  0  0  0  0
 17 24  1  0  0  0  0
M  END
