22
 xtb: 6.7.1 (edcfbbe)
C            4.12375830965188       -0.07570702200947        0.00039120392707
C            3.74911025427378        1.26447463439465        0.00014848678915
C            2.40001642236338        1.61291643988928       -0.00014031778679
C            1.43786787031926        0.61635487874360       -0.00020640367680
C            1.81133189995325       -0.72380949083362       -0.00002669374537
C            3.15203109311735       -1.07425520444992        0.00030627073850
O            0.87291839806630       -1.74672736353026       -0.00020490590206
C           -0.45627152811324       -1.35923180640293       -0.00013239868368
C           -1.41602282976340       -2.35818188883071        0.00000796678303
C           -2.76461598859707       -2.01410761113075        0.00010422807335
C           -3.15412445186299       -0.68066158301753        0.00008381204952
C           -2.17594657125673        0.30829879704848       -0.00006851282379
C           -0.82128310150095       -0.01227333254438       -0.00021944534119
O            0.10396442680482        1.00691569684575       -0.00047696499553
Cl          -2.64097454121628        1.99621478460094       -0.00009547381929
H            5.17223964563413       -0.35240008967302        0.00064946315759
H            4.50170402719650        2.04512381280959        0.00018812519941
H            2.08133636336384        2.64996543927463       -0.00032168310198
H            3.41944116729206       -2.12569832005710        0.00048140260431
H           -1.09453675240556       -3.39375229441494        0.00003617744667
H           -3.51862856518856       -2.79294888370166        0.00020239869171
H           -4.20111339326507       -0.40238715795680        0.00019040775245
