 xtb: 6.7.1 (edcfbbe)
          04062518003D

 24 24  0     0  0            999 V2000
   -1.8098   -0.9676   -0.7164 C   0  0  0  0  0  0  0  0  0  0  0  0
   -1.0496   -0.4045    0.5053 C   0  0  0  0  0  0  0  0  0  0  0  0
   -1.7227   -0.4732    1.3689 H   0  0  0  0  0  0  0  0  0  0  0  0
   -0.6545    1.0772    0.3322 C   0  0  0  0  0  0  0  0  0  0  0  0
   -1.4534    1.5856   -0.2190 H   0  0  0  0  0  0  0  0  0  0  0  0
    0.6521    1.2432   -0.4708 C   0  0  0  0  0  0  0  0  0  0  0  0
    0.9755    2.2820   -0.3293 H   0  0  0  0  0  0  0  0  0  0  0  0
    1.7496    0.3207    0.0959 C   0  0  0  0  0  0  0  0  0  0  0  0
    2.6245    0.3484   -0.5712 H   0  0  0  0  0  0  0  0  0  0  0  0
    1.2272   -1.1302    0.1248 C   0  0  0  0  0  0  0  0  0  0  0  0
    1.9272   -1.7806    0.6659 H   0  0  0  0  0  0  0  0  0  0  0  0
    0.0490   -1.2279    0.8868 O   0  0  0  0  0  0  0  0  0  0  0  0
    1.1254   -1.6596   -1.1571 O   0  0  0  0  0  0  0  0  0  0  0  0
    2.0764    0.7912    1.3790 O   0  0  0  0  0  0  0  0  0  0  0  0
    0.4035    0.9572   -1.8299 O   0  0  0  0  0  0  0  0  0  0  0  0
   -0.5699    1.7443    1.5651 O   0  0  0  0  0  0  0  0  0  0  0  0
   -3.2040   -0.8162   -0.5926 O   0  0  0  0  0  0  0  0  0  0  0  0
   -1.6305   -2.0444   -0.7622 H   0  0  0  0  0  0  0  0  0  0  0  0
   -1.4563   -0.5028   -1.6428 H   0  0  0  0  0  0  0  0  0  0  0  0
    0.7123   -1.0020   -1.7473 H   0  0  0  0  0  0  0  0  0  0  0  0
    2.7761    0.2476    1.7683 H   0  0  0  0  0  0  0  0  0  0  0  0
    0.9898    1.4791   -2.3959 H   0  0  0  0  0  0  0  0  0  0  0  0
    0.2237    1.4342    2.0330 H   0  0  0  0  0  0  0  0  0  0  0  0
   -3.4362    0.1221   -0.6216 H   0  0  0  0  0  0  0  0  0  0  0  0
  1  2  1  0  0  0  0
  2  3  1  0  0  0  0
  2  4  1  0  0  0  0
  4  5  1  0  0  0  0
  4  6  1  0  0  0  0
  6  7  1  0  0  0  0
  6  8  1  0  0  0  0
  8  9  1  0  0  0  0
  8 10  1  0  0  0  0
 10 11  1  0  0  0  0
  2 12  1  0  0  0  0
 10 12  1  0  0  0  0
 10 13  1  0  0  0  0
  8 14  1  0  0  0  0
  6 15  1  0  0  0  0
  4 16  1  0  0  0  0
  1 17  1  0  0  0  0
  1 18  1  0  0  0  0
  1 19  1  0  0  0  0
 13 20  1  0  0  0  0
 14 21  1  0  0  0  0
 15 22  1  0  0  0  0
 16 23  1  0  0  0  0
 17 24  1  0  0  0  0
M  END
