 xtb: 6.7.1 (edcfbbe)
          04042516223D

 14 13  0     0  0            999 V2000
   -2.4846   -0.0330   -0.3176 C   0  0  0  0  0  0  0  0  0  0  0  0
   -1.2296   -0.7238    0.1979 C   0  0  0  0  0  0  0  0  0  0  0  0
    0.0244    0.0208   -0.1780 C   0  0  0  0  0  0  0  0  0  0  0  0
    0.0710    1.0820   -0.7613 O   0  0  0  0  0  0  0  0  0  0  0  0
    1.1134   -0.6372    0.2178 O   0  0  0  0  0  0  0  0  0  0  0  0
    2.3823   -0.0423   -0.0670 C   0  0  0  0  0  0  0  0  0  0  0  0
   -2.5462    0.9783    0.0758 H   0  0  0  0  0  0  0  0  0  0  0  0
   -2.4620    0.0316   -1.4023 H   0  0  0  0  0  0  0  0  0  0  0  0
   -3.3677   -0.5863   -0.0141 H   0  0  0  0  0  0  0  0  0  0  0  0
   -1.1453   -1.7366   -0.1989 H   0  0  0  0  0  0  0  0  0  0  0  0
   -1.2479   -0.8020    1.2866 H   0  0  0  0  0  0  0  0  0  0  0  0
    2.4582    0.9280    0.4251 H   0  0  0  0  0  0  0  0  0  0  0  0
    2.4966    0.0957   -1.1428 H   0  0  0  0  0  0  0  0  0  0  0  0
    3.1230   -0.7351    0.3193 H   0  0  0  0  0  0  0  0  0  0  0  0
  1  2  1  0  0  0  0
  2  3  1  0  0  0  0
  3  4  2  0  0  0  0
  3  5  1  0  0  0  0
  5  6  1  0  0  0  0
  1  7  1  0  0  0  0
  1  8  1  0  0  0  0
  1  9  1  0  0  0  0
  2 10  1  0  0  0  0
  2 11  1  0  0  0  0
  6 12  1  0  0  0  0
  6 13  1  0  0  0  0
  6 14  1  0  0  0  0
M  END
