17
CONF1
C 2.7739157655 0.0020398749 0.7360486069
C 1.9914669129 -0.0025916553 -0.5836000413
C 0.5112737205 -0.0012856751 -0.3331242519
C -0.2031654289 1.1892214481 -0.1844033643
C -1.5609331590 1.1411715436 0.0997372366
N -2.2550728164 0.0014405950 0.2469751355
C -1.5627296272 -1.1396394676 0.1019795163
C -0.2050073263 -1.1903583800 -0.1820381305
H 2.5316726591 0.8906961777 1.3277868095
H 3.8510247967 0.0007471971 0.5440252183
H 2.5306912716 -0.8818654211 1.3344544530
H 2.2622984139 -0.8898193418 -1.1654666729
H 2.2627890991 0.8802197518 -1.1719410127
H 0.2945064628 2.1486631705 -0.2917822129
H -2.1230598429 2.0657357539 0.2141105297
H -2.1262720811 -2.0631102995 0.2182222019
H 0.2911864979 -2.1507772090 -0.2875015421
17
CONF2
C 2.8776365439 -0.7482412286 0.1178040316
C 1.9992335933 0.4752854276 -0.1049171935
C 0.5129653194 0.2371943732 -0.0487016277
C -0.3714437571 1.3039758107 -0.2448814810
C -1.7379207966 1.0840564871 -0.1926631239
N -2.2947249476 -0.1174309045 0.0402430265
C -1.4441785346 -1.1352577835 0.2274252248
C -0.0591274401 -1.0115904358 0.1931608866
H 3.9321812821 -0.4651935396 0.0567251919
H 2.6944244229 -1.5187270739 -0.6380560587
H 2.7072768281 -1.1920163367 1.1039475003
H 2.2289835862 0.9261084503 -1.0788688155
H 2.2418425224 1.2476112850 0.6362565772
H 0.0082998884 2.3034319540 -0.4376148812
H -2.4266161515 1.9124786689 -0.3451574688
H -1.8917379183 -2.1091459106 0.4161749980
H 0.5541948742 -1.8907366231 0.3555532758
17
CONF3
C 2.8678440230 0.7205735448 -0.2393955381
C 1.9982067388 -0.4643940033 0.1718639258
C 0.5128840175 -0.2356156924 0.0794159972
C -0.0751792069 1.0197149611 0.2479331539
C -1.4572677883 1.1433497827 0.1815593934
N -2.2946688040 0.1197394696 -0.0422457853
C -1.7240270330 -1.0842750917 -0.2081505480
C -0.3555575226 -1.3047768690 -0.1582280964
H 2.6360078258 1.0447660291 -1.2593267568
H 3.9238725012 0.4370446056 -0.2058991724
H 2.7363983169 1.5763417794 0.4287037704
H 2.2306075081 -0.7424706014 1.2093404313
H 2.2476057276 -1.3415645613 -0.4348922519
H 0.5255626285 1.9038667623 0.4309442085
H -1.9163972134 2.1207130166 0.3165380410
H -2.3991748149 -1.9163125975 -0.3977312950
H 0.0334788347 -2.3078769467 -0.3069759346
