 xtb: 6.7.1 (edcfbbe)
          04032521513D

 11 10  0     0  0            999 V2000
   -1.7384   -1.2636   -0.1400 C   0  0  0  0  0  0  0  0  0  0  0  0
   -1.1170    0.0000    0.4147 C   0  0  0  0  0  0  0  0  0  0  0  0
   -1.7384    1.2636   -0.1400 C   0  0  0  0  0  0  0  0  0  0  0  0
    0.8486   -0.0000   -0.0184 Br  0  0  0  0  0  0  0  0  0  0  0  0
   -1.6681   -1.2809   -1.2255 H   0  0  0  0  0  0  0  0  0  0  0  0
   -1.2444   -2.1484    0.2548 H   0  0  0  0  0  0  0  0  0  0  0  0
   -2.7883   -1.2956    0.1428 H   0  0  0  0  0  0  0  0  0  0  0  0
   -1.1303    0.0000    1.5057 H   0  0  0  0  0  0  0  0  0  0  0  0
   -1.6681    1.2808   -1.2255 H   0  0  0  0  0  0  0  0  0  0  0  0
   -1.2444    2.1485    0.2547 H   0  0  0  0  0  0  0  0  0  0  0  0
   -2.7883    1.2956    0.1427 H   0  0  0  0  0  0  0  0  0  0  0  0
  1  2  1  0  0  0  0
  2  3  1  0  0  0  0
  2  4  1  0  0  0  0
  1  5  1  0  0  0  0
  1  6  1  0  0  0  0
  1  7  1  0  0  0  0
  2  8  1  0  0  0  0
  3  9  1  0  0  0  0
  3 10  1  0  0  0  0
  3 11  1  0  0  0  0
M  END
