 xtb: 6.7.1 (edcfbbe)
          04042519583D

 16 16  0     0  0            999 V2000
    2.4510   -1.1995    0.0073 C   0  0  0  0  0  0  0  0  0  0  0  0
    1.6994    0.0971   -0.0004 C   0  0  0  0  0  0  0  0  0  0  0  0
    2.2708    1.1755   -0.0066 O   0  0  0  0  0  0  0  0  0  0  0  0
    0.2164    0.0288   -0.0002 C   0  0  0  0  0  0  0  0  0  0  0  0
   -0.5132    1.2208    0.0034 C   0  0  0  0  0  0  0  0  0  0  0  0
   -1.8942    1.1705    0.0037 C   0  0  0  0  0  0  0  0  0  0  0  0
   -2.5024   -0.0775    0.0006 C   0  0  0  0  0  0  0  0  0  0  0  0
   -1.8261   -1.2167   -0.0036 N   0  0  0  0  0  0  0  0  0  0  0  0
   -0.5066   -1.1663   -0.0041 C   0  0  0  0  0  0  0  0  0  0  0  0
    2.1843   -1.7765    0.8891 H   0  0  0  0  0  0  0  0  0  0  0  0
    3.5185   -0.9965    0.0124 H   0  0  0  0  0  0  0  0  0  0  0  0
    2.1943   -1.7799   -0.8754 H   0  0  0  0  0  0  0  0  0  0  0  0
    0.0237    2.1584    0.0060 H   0  0  0  0  0  0  0  0  0  0  0  0
   -2.4853    2.0715    0.0069 H   0  0  0  0  0  0  0  0  0  0  0  0
   -3.5788   -0.1777    0.0013 H   0  0  0  0  0  0  0  0  0  0  0  0
   -0.0169   -2.1289   -0.0081 H   0  0  0  0  0  0  0  0  0  0  0  0
  1  2  1  0  0  0  0
  2  3  2  0  0  0  0
  2  4  1  0  0  0  0
  4  5  4  0  0  0  0
  5  6  4  0  0  0  0
  6  7  4  0  0  0  0
  7  8  4  0  0  0  0
  4  9  4  0  0  0  0
  8  9  4  0  0  0  0
  1 10  1  0  0  0  0
  1 11  1  0  0  0  0
  1 12  1  0  0  0  0
  5 13  1  0  0  0  0
  6 14  1  0  0  0  0
  7 15  1  0  0  0  0
  9 16  1  0  0  0  0
M  END
