 xtb: 6.7.1 (edcfbbe)
          04062511443D

 31 31  0     0  0            999 V2000
    3.0640   -0.0798    0.2332 C   0  0  0  0  0  0  0  0  0  0  0  0
    1.9362    0.1447   -0.7732 C   0  0  0  0  0  0  0  0  0  0  0  0
    2.3995    0.2795   -1.7588 H   0  0  0  0  0  0  0  0  0  0  0  0
    1.1241    1.4044   -0.4591 C   0  0  0  0  0  0  0  0  0  0  0  0
    0.2266    1.2070    0.7569 C   0  0  0  0  0  0  0  0  0  0  0  0
   -0.7852    0.0751    0.5445 C   0  0  0  0  0  0  0  0  0  0  0  0
   -1.3364   -0.0562    1.4857 H   0  0  0  0  0  0  0  0  0  0  0  0
    0.0144   -1.2196    0.2916 C   0  0  0  0  0  0  0  0  0  0  0  0
   -0.6761   -2.0333    0.0202 H   0  0  0  0  0  0  0  0  0  0  0  0
    1.0109   -1.0742   -0.8645 C   0  0  0  0  0  0  0  0  0  0  0  0
    0.7192   -1.6198    1.4574 O   0  0  0  0  0  0  0  0  0  0  0  0
   -1.8350    0.3505   -0.5518 C   0  0  0  0  0  0  0  0  0  0  0  0
   -2.9550   -0.6924   -0.5152 C   0  0  0  0  0  0  0  0  0  0  0  0
   -2.4633    1.7370   -0.3959 C   0  0  0  0  0  0  0  0  0  0  0  0
    3.7098   -0.8868   -0.1061 H   0  0  0  0  0  0  0  0  0  0  0  0
    3.6652    0.8208    0.3377 H   0  0  0  0  0  0  0  0  0  0  0  0
    2.6674   -0.3577    1.2042 H   0  0  0  0  0  0  0  0  0  0  0  0
    1.8065    2.2373   -0.2769 H   0  0  0  0  0  0  0  0  0  0  0  0
    0.5138    1.6623   -1.3266 H   0  0  0  0  0  0  0  0  0  0  0  0
    0.8482    0.9427    1.6141 H   0  0  0  0  0  0  0  0  0  0  0  0
   -0.2860    2.1366    1.0014 H   0  0  0  0  0  0  0  0  0  0  0  0
    1.6147   -1.9831   -0.8987 H   0  0  0  0  0  0  0  0  0  0  0  0
    0.4354   -1.0198   -1.7899 H   0  0  0  0  0  0  0  0  0  0  0  0
    0.0840   -1.8050    2.1611 H   0  0  0  0  0  0  0  0  0  0  0  0
   -1.3534    0.2997   -1.5322 H   0  0  0  0  0  0  0  0  0  0  0  0
   -3.6978   -0.4656   -1.2764 H   0  0  0  0  0  0  0  0  0  0  0  0
   -3.4478   -0.6843    0.4548 H   0  0  0  0  0  0  0  0  0  0  0  0
   -2.5819   -1.6947   -0.7051 H   0  0  0  0  0  0  0  0  0  0  0  0
   -3.2875    1.8479   -1.0969 H   0  0  0  0  0  0  0  0  0  0  0  0
   -1.7464    2.5270   -0.5980 H   0  0  0  0  0  0  0  0  0  0  0  0
   -2.8532    1.8664    0.6114 H   0  0  0  0  0  0  0  0  0  0  0  0
  1  2  1  0  0  0  0
  2  3  1  0  0  0  0
  2  4  1  0  0  0  0
  4  5  1  0  0  0  0
  5  6  1  0  0  0  0
  6  7  1  0  0  0  0
  6  8  1  0  0  0  0
  8  9  1  0  0  0  0
  2 10  1  0  0  0  0
  8 10  1  0  0  0  0
  8 11  1  0  0  0  0
  6 12  1  0  0  0  0
 12 13  1  0  0  0  0
 12 14  1  0  0  0  0
  1 15  1  0  0  0  0
  1 16  1  0  0  0  0
  1 17  1  0  0  0  0
  4 18  1  0  0  0  0
  4 19  1  0  0  0  0
  5 20  1  0  0  0  0
  5 21  1  0  0  0  0
 10 22  1  0  0  0  0
 10 23  1  0  0  0  0
 11 24  1  0  0  0  0
 12 25  1  0  0  0  0
 13 26  1  0  0  0  0
 13 27  1  0  0  0  0
 13 28  1  0  0  0  0
 14 29  1  0  0  0  0
 14 30  1  0  0  0  0
 14 31  1  0  0  0  0
M  END
