22
CONF1
C 4.1102222812 -0.0735356558 0.0004821133
C 3.7376501124 1.2581237031 0.0000403979
C 2.3958008937 1.6056111034 -0.0003425332
C 1.4278458097 0.6165438218 -0.0003095747
C 1.8026965860 -0.7255476577 -0.0000140884
C 3.1440579086 -1.0672987186 0.0004364011
O 0.8718739696 -1.7455022400 -0.0001692946
C -0.4462407252 -1.3620086277 -0.0001621503
C -1.4141558690 -2.3523264795 -0.0001060511
C -2.7564400085 -2.0091392587 0.0000320922
C -3.1409986604 -0.6817886009 0.0001818864
C -2.1679531121 0.3058689904 0.0000739874
C -0.8168059559 -0.0152097158 -0.0001841849
O 0.1015283000 1.0053474085 -0.0005563318
Cl -2.6102188096 1.9825685722 0.0002485809
H 5.1524801366 -0.3472720841 0.0009153166
H 4.4855411211 2.0340044187 0.0000667952
H 2.0763152367 2.6349335205 -0.0006240549
H 3.4060185077 -2.1124246708 0.0007491447
H -1.0924424869 -3.3801798035 -0.0002255610
H -3.5048267413 -2.7834350153 -0.0000237037
H -4.1797465680 -0.3992105020 0.0003879105
