23
 xtb: 6.7.1 (edcfbbe)
C           -2.31537754338433        0.27479563417613        0.96389079354731
C           -1.75714806417015        0.50849889078942       -0.43918820165203
C           -0.54834528510087       -0.34114710996490       -0.85180464763577
C            0.79958916109570       -0.15068260287554       -0.11206071540576
C            1.89616446221780       -0.77085339179081       -0.99133630351444
C            1.10817083313932        1.33614146588779        0.09078484490989
C            0.82079584639053       -0.87316160642858        1.24239871569009
H           -3.28508865398878        0.77193042713026        1.07656461723586
H           -2.46404088647845       -0.79355747257193        1.15905148190045
H           -1.65759927153436        0.67019530711566        1.74235507067859
H           -2.55324914524918        0.29721850525485       -1.16465321269141
H           -1.51791982331278        1.57196849976652       -0.56300300812646
H           -0.36399342905192       -0.13196895491817       -1.91463271477074
H           -0.82095848378176       -1.40465320653125       -0.79319541938864
H            1.67777317808300       -1.82476070589126       -1.20133333804544
H            1.97574414323184       -0.24504040808954       -1.94962770138484
H            2.87137054994951       -0.72091649105623       -0.49344998403855
H            1.06077339234860        1.88019485864255       -0.85990360964319
H            2.11584752269852        1.46442201501247        0.50287192118409
H            0.40238534580075        1.80429350141282        0.78537580604636
H            1.81331957088427       -0.78782169672057        1.70089467272573
H            0.09590561267791       -0.45883139798975        1.94667599626648
H            0.60058015218024       -1.93984228483540        1.11745391131084
