 xtb: 6.7.1 (edcfbbe)
          04062518003D

 24 24  0     0  0            999 V2000
   -2.5513   -0.6834   -0.3360 C   0  0  0  0  0  0  0  0  0  0  0  0
   -1.1613   -0.3339    0.2151 C   0  0  0  0  0  0  0  0  0  0  0  0
   -1.1818   -0.3304    1.3182 H   0  0  0  0  0  0  0  0  0  0  0  0
   -0.7082    1.0497   -0.2851 C   0  0  0  0  0  0  0  0  0  0  0  0
   -0.7489    1.0584   -1.3799 H   0  0  0  0  0  0  0  0  0  0  0  0
    0.7401    1.3439    0.1485 C   0  0  0  0  0  0  0  0  0  0  0  0
    0.7773    1.4901    1.2416 H   0  0  0  0  0  0  0  0  0  0  0  0
    1.6668    0.1736   -0.1905 C   0  0  0  0  0  0  0  0  0  0  0  0
    1.8020    0.1475   -1.2819 H   0  0  0  0  0  0  0  0  0  0  0  0
    1.0439   -1.1610    0.2818 C   0  0  0  0  0  0  0  0  0  0  0  0
    1.0393   -1.1643    1.3870 H   0  0  0  0  0  0  0  0  0  0  0  0
   -0.2545   -1.3279   -0.2222 O   0  0  0  0  0  0  0  0  0  0  0  0
    1.8113   -2.2410   -0.1162 O   0  0  0  0  0  0  0  0  0  0  0  0
    2.8957    0.3779    0.4579 O   0  0  0  0  0  0  0  0  0  0  0  0
    1.2225    2.4926   -0.5024 O   0  0  0  0  0  0  0  0  0  0  0  0
   -1.5690    2.0775    0.1318 O   0  0  0  0  0  0  0  0  0  0  0  0
   -3.1688   -1.7548    0.3247 O   0  0  0  0  0  0  0  0  0  0  0  0
   -2.4361   -1.0005   -1.3739 H   0  0  0  0  0  0  0  0  0  0  0  0
   -3.1729    0.2192   -0.3014 H   0  0  0  0  0  0  0  0  0  0  0  0
    1.5326   -2.5157   -1.0040 H   0  0  0  0  0  0  0  0  0  0  0  0
    3.4664   -0.3891    0.2955 H   0  0  0  0  0  0  0  0  0  0  0  0
    0.5560    3.1940   -0.4271 H   0  0  0  0  0  0  0  0  0  0  0  0
   -1.5825    2.1261    1.1000 H   0  0  0  0  0  0  0  0  0  0  0  0
   -3.3707   -1.5079    1.2387 H   0  0  0  0  0  0  0  0  0  0  0  0
  1  2  1  0  0  0  0
  2  3  1  0  0  0  0
  2  4  1  0  0  0  0
  4  5  1  0  0  0  0
  4  6  1  0  0  0  0
  6  7  1  0  0  0  0
  6  8  1  0  0  0  0
  8  9  1  0  0  0  0
  8 10  1  0  0  0  0
 10 11  1  0  0  0  0
  2 12  1  0  0  0  0
 10 12  1  0  0  0  0
 10 13  1  0  0  0  0
  8 14  1  0  0  0  0
  6 15  1  0  0  0  0
  4 16  1  0  0  0  0
  1 17  1  0  0  0  0
  1 18  1  0  0  0  0
  1 19  1  0  0  0  0
 13 20  1  0  0  0  0
 14 21  1  0  0  0  0
 15 22  1  0  0  0  0
 16 23  1  0  0  0  0
 17 24  1  0  0  0  0
M  END
