27
 xtb: 6.7.1 (edcfbbe)
C           -3.43651356179153        0.62003314937067        0.09114274127217
C           -1.94110386420223        0.50236004162608        0.08218487840771
C           -1.13564513348354        1.52205050559743       -0.23856622739987
C            0.36065903065157        1.44717977321296       -0.28640855770413
C            0.86993679524839       -0.00342478342993       -0.29659313855091
H            0.62034723317410       -0.43205943829782       -1.27515218149330
C            0.11243615122050       -0.79063667424222        0.77927543633934
C           -1.37615198214415       -0.84335776565615        0.47752547396931
H           -1.91276124632520       -1.19840451425058        1.37020484228042
O           -1.57137414821625       -1.82548048827040       -0.58323027566286
C            2.37145518612524       -0.07019838079842       -0.13492837341497
C            3.15826278950847       -0.34846567834111       -1.17994570747108
C            2.93808753629624        0.19359077604892        1.23043446204383
H           -3.90065332512011       -0.09306779343478       -0.60297747123834
H           -3.76035411565003        1.62413293689178       -0.19574235302433
H           -3.83828605587542        0.39443592748524        1.08702037240341
H           -1.58228076843982        2.48546809012365       -0.48487772122642
H            0.72612103837595        1.97258756013485       -1.17744530768162
H            0.77860722319265        1.99000842051074        0.57448160253653
H            0.49758708522624       -1.81291123448209        0.86677203489950
H            0.24543266819098       -0.30481958892685        1.75364132184748
H           -2.52129429421602       -1.90035639569446       -0.74172322059974
H            4.24088418224546       -0.37400875187417       -1.08383749873595
H            2.73772958910551       -0.55139557441429       -2.16197267120443
H            2.55742737381415        1.13075280324769        1.65252830728475
H            2.65297012330196       -0.60179244698693        1.92940003231716
H            4.02934184350603        0.24482577675681        1.20006502190491
