13
 xtb: 6.7.1 (edcfbbe)
C           -2.41546934936732        0.00497485550949        0.00021601989009
C           -0.98481025635435        0.52984485056770       -0.00015533825095
C            0.03349629107762       -0.62441788413705       -0.00011329511492
C            1.41048431277712       -0.16107607899055       -0.00194219899798
C            2.54388670644683        0.25587684946436        0.00183044082415
H           -2.60787260736187       -0.61067559184159       -0.88507641716431
H           -2.60765174873854       -0.61009963458361        0.88594634279966
H           -3.13465643995932        0.82944721686473        0.00000475559127
H           -0.81090882833601        1.15652845487459       -0.88163435283196
H           -0.81046784902829        1.15709147633339        0.88083914640391
H           -0.13272109085529       -1.25904418679341       -0.87972303776530
H           -0.13184962728084       -1.25843017721753        0.88008917385237
H            3.54804124869966        0.61614832796701        0.00008810470642
