27
CONF1
C 2.9244941974 0.0003224068 -0.8378342259
C 2.5186294192 -1.1377541877 0.1051136159
H 2.6568800251 -2.1632428355 -0.2384447787
C 1.0848684542 -0.7862966247 0.5959838163
H 0.9695156275 -1.1897107599 1.6066779118
C 1.0848369569 0.7864015140 0.5960400942
H 0.9692084194 1.1897473455 1.6067275842
C 2.5186485127 1.1380159163 0.1055366141
H 2.6569418005 2.1636361088 -0.2376124274
C 3.2980095483 0.7335840293 1.3741976590
H 3.2651376022 1.3407781260 2.2743361491
C 3.2980628743 -0.7338091199 1.3738943929
H 3.2652181410 -1.3413746557 2.2737838196
O 4.5239741463 -0.0000360358 1.1542185962
C -0.2700226039 1.1266401058 -0.1153696772
C -1.2898212472 0.6691629041 0.9396642992
C -1.2898135223 -0.6687855527 0.9398908106
C -0.2701202077 -1.1266173870 -0.1150843140
C -0.5670104106 -0.0001429806 -1.1592450424
Cl -2.3125252724 -0.0000586142 -1.6916880782
Cl 0.3296659480 -0.0006010757 -2.6904486853
Cl -0.4442518213 -2.7867573903 -0.7046615331
Cl -2.1211776696 -1.7269746011 1.9865505292
Cl -2.1211892857 1.7277171216 1.9859500869
Cl -0.4439660410 2.7866081021 -0.7054600233
H 2.4171529506 0.0005832635 -1.7870559845
H 3.9976638395 0.0003286248 -1.0282217117
