 xtb: 6.7.1 (edcfbbe)
          04032521053D

 24 25  0     0  0            999 V2000
   -3.4355   -1.1899   -0.0015 C   0  0  0  0  0  0  0  0  0  0  0  0
   -2.0536   -0.6085    0.0018 C   0  0  0  0  0  0  0  0  0  0  0  0
   -1.8676    0.7854    0.0010 C   0  0  0  0  0  0  0  0  0  0  0  0
   -0.6237    1.3622   -0.0001 C   0  0  0  0  0  0  0  0  0  0  0  0
    0.5272    0.5291    0.0000 C   0  0  0  0  0  0  0  0  0  0  0  0
    1.8431    1.0398    0.0008 C   0  0  0  0  0  0  0  0  0  0  0  0
    2.9256    0.2044    0.0006 C   0  0  0  0  0  0  0  0  0  0  0  0
    2.7497   -1.1873   -0.0005 C   0  0  0  0  0  0  0  0  0  0  0  0
    1.4902   -1.7156   -0.0007 C   0  0  0  0  0  0  0  0  0  0  0  0
    0.3520   -0.8810   -0.0001 C   0  0  0  0  0  0  0  0  0  0  0  0
   -0.9490   -1.4199    0.0009 C   0  0  0  0  0  0  0  0  0  0  0  0
   -0.4861    2.8552   -0.0010 C   0  0  0  0  0  0  0  0  0  0  0  0
   -4.1874   -0.4083    0.0658 H   0  0  0  0  0  0  0  0  0  0  0  0
   -3.6033   -1.7556   -0.9168 H   0  0  0  0  0  0  0  0  0  0  0  0
   -3.5621   -1.8711    0.8380 H   0  0  0  0  0  0  0  0  0  0  0  0
   -2.7433    1.4201    0.0007 H   0  0  0  0  0  0  0  0  0  0  0  0
    1.9966    2.1075    0.0020 H   0  0  0  0  0  0  0  0  0  0  0  0
    3.9259    0.6119    0.0013 H   0  0  0  0  0  0  0  0  0  0  0  0
    3.6152   -1.8336   -0.0012 H   0  0  0  0  0  0  0  0  0  0  0  0
    1.3434   -2.7865   -0.0012 H   0  0  0  0  0  0  0  0  0  0  0  0
   -1.0641   -2.4950    0.0012 H   0  0  0  0  0  0  0  0  0  0  0  0
    0.0529    3.1910    0.8835 H   0  0  0  0  0  0  0  0  0  0  0  0
    0.0622    3.1891   -0.8806 H   0  0  0  0  0  0  0  0  0  0  0  0
   -1.4660    3.3251   -0.0066 H   0  0  0  0  0  0  0  0  0  0  0  0
  1  2  1  0  0  0  0
  2  3  4  0  0  0  0
  3  4  2  0  0  0  0
  4  5  4  0  0  0  0
  5  6  4  0  0  0  0
  6  7  2  0  0  0  0
  7  8  4  0  0  0  0
  8  9  2  0  0  0  0
  5 10  4  0  0  0  0
  9 10  4  0  0  0  0
  2 11  2  0  0  0  0
 10 11  4  0  0  0  0
  4 12  1  0  0  0  0
  1 13  1  0  0  0  0
  1 14  1  0  0  0  0
  1 15  1  0  0  0  0
  3 16  1  0  0  0  0
  6 17  1  0  0  0  0
  7 18  1  0  0  0  0
  8 19  1  0  0  0  0
  9 20  1  0  0  0  0
 11 21  1  0  0  0  0
 12 22  1  0  0  0  0
 12 23  1  0  0  0  0
 12 24  1  0  0  0  0
M  END
