11
CONF3
C 0.4120652379 1.8945505034 0.1877698679
C 0.5628126689 0.5090848325 0.7834272680
H 1.1052968836 0.5483412344 1.7306967275
C -0.7568610805 -0.2020067113 1.0175924599
Cl -1.6765040862 -0.4199150431 -0.5100324749
Cl 1.5960426047 -0.5092321443 -0.3051163758
H -0.1484190121 2.5200901121 0.8771280772
H 1.3875795566 2.3403394409 0.0185360889
H -0.1209955875 1.8462751092 -0.7581775114
H -0.6033198379 -1.1987312114 1.4269167899
H -1.3879325615 0.3903115465 1.6780043760
11
CONF2
C 0.9870470180 2.1107408009 -0.3808528055
C 0.3425188709 0.8648346042 0.1987461116
H 0.1009827962 0.9972509554 1.2549645741
C -0.8930510017 0.4650600632 -0.5838423158
Cl -1.7171675873 -0.9395539261 0.1734676732
Cl 1.5330140044 -0.5018552708 0.1568949333
H 0.2962582450 2.9450318076 -0.2986482890
H 1.8937244282 2.3491430451 0.1665112777
H 1.2394197964 1.9575060122 -1.4258488850
H -1.6135623316 1.2811977359 -0.5888047792
H -0.6410332078 0.1704667824 -1.6010918605
11
CONF1
C 0.4107331469 1.7143001725 -0.1555838310
C 0.4484556763 0.2798233113 0.3298732826
H 0.3066121647 0.2243390368 1.4110208389
C -0.5433037520 -0.6233049537 -0.3829301050
Cl -2.2140141862 -0.1688974482 0.0759931342
Cl 2.0896067036 -0.4160947264 0.0221080037
H 0.6187651121 1.7613861305 -1.2212913207
H -0.5785845112 2.1247829594 0.0304849384
H 1.1458494955 2.3131595119 0.3738111011
H -0.4686085708 -0.5172739837 -1.4641421608
H -0.4122928227 -1.6649223987 -0.0942711651
