24
 xtb: 6.7.1 (edcfbbe)
C           -2.58140445359932       -0.87141284821746        0.35568774407931
C           -1.15301311284131       -0.42833141320868        0.61068930472885
H           -1.00443504877384       -0.35980505556378        1.70121056848211
C           -0.80772825663685        0.91672178197566       -0.02815172990075
H           -0.99566555458967        0.86104779217155       -1.11059522178352
C            0.66204815440697        1.23666923376469        0.20036095241799
H            0.83110050559395        1.38309598233138        1.27896502740317
C            1.53665746499910        0.08873558501677       -0.28191858160524
H            1.43217823292542       -0.01812522707167       -1.37384146949369
C            1.08624459645204       -1.21786866794913        0.37208817940086
H            1.22315753211411       -1.17606985215550        1.46285533123608
O           -0.29378442852301       -1.44600684189696        0.06614824472385
O            1.82003726543229       -2.32412579301389       -0.08278499848906
O            2.88578237539591        0.40200932535268        0.07067052128461
O            0.94614013637368        2.44956719988630       -0.50860990095235
O           -1.64905986255712        1.90433445522134        0.57442958037118
O           -2.91063020940957       -0.93746288976457       -1.03648096978389
H           -3.26683857882402       -0.15077781848500        0.80808405724136
H           -2.73708338804088       -1.84577115534938        0.83803868884310
H            1.83398251917483       -2.30098585875044       -1.05208968777625
H            3.45852717041984       -0.25378858475275       -0.34850030673636
H            1.83454043529481        2.73391250685832       -0.25754939978251
H           -1.39969388772262        2.75911821025994        0.19796020353573
H           -2.34184343774148       -1.60847272269958       -1.43662889792265
