12
 xtb: 6.7.1 (edcfbbe)
C            2.02403065115692       -0.82249447951545       -0.36121844740094
O            1.12547805118002        0.33225922223917       -0.40021833365458
S           -0.39841463301445        0.03249405512192        0.10426006293962
O           -0.37672651125153       -0.32863108420040        1.53210518373021
O           -1.03807574964485       -0.91916101590631       -0.82009495221330
C           -1.05572035887044        1.67466712357160       -0.12357976225129
H            2.97367670737659       -0.44016360869627       -0.73254109038247
H            1.65373839191568       -1.61388463998048       -1.01749521769648
H            2.13673212664834       -1.18039473675793        0.66505524094041
H           -0.49790375234866        2.36362514008299        0.51348422827766
H           -0.96749055192450        1.94042286408209       -1.17873522474816
H           -2.10511827619956        1.62948990462200        0.17862647466936
