 xtb: 6.7.1 (edcfbbe)
          04032521303D

 19 19  0     0  0            999 V2000
   -1.8125    0.0411   -0.4233 C   0  0  0  0  0  0  0  0  0  0  0  0
   -1.2017   -1.3136   -0.0404 C   0  0  0  0  0  0  0  0  0  0  0  0
    0.2519   -1.1648    0.4241 C   0  0  0  0  0  0  0  0  0  0  0  0
    0.9404   -0.0272   -0.3328 C   0  0  0  0  0  0  0  0  0  0  0  0
    0.2974    1.3180    0.0494 C   0  0  0  0  0  0  0  0  0  0  0  0
   -1.1860    1.1593    0.4030 C   0  0  0  0  0  0  0  0  0  0  0  0
    2.3415   -0.0179   -0.1280 O   0  0  0  0  0  0  0  0  0  0  0  0
   -2.8916    0.0171   -0.2670 H   0  0  0  0  0  0  0  0  0  0  0  0
   -1.6368    0.2458   -1.4808 H   0  0  0  0  0  0  0  0  0  0  0  0
   -1.7826   -1.7694    0.7627 H   0  0  0  0  0  0  0  0  0  0  0  0
   -1.2469   -1.9842   -0.8997 H   0  0  0  0  0  0  0  0  0  0  0  0
    0.2875   -0.9442    1.4930 H   0  0  0  0  0  0  0  0  0  0  0  0
    0.7996   -2.0935    0.2564 H   0  0  0  0  0  0  0  0  0  0  0  0
    0.8361   -0.2026   -1.4090 H   0  0  0  0  0  0  0  0  0  0  0  0
    0.8360    1.7349    0.9034 H   0  0  0  0  0  0  0  0  0  0  0  0
    0.4170    2.0157   -0.7806 H   0  0  0  0  0  0  0  0  0  0  0  0
   -1.2988    0.9215    1.4619 H   0  0  0  0  0  0  0  0  0  0  0  0
   -1.7064    2.1002    0.2203 H   0  0  0  0  0  0  0  0  0  0  0  0
    2.5189    0.0922    0.8171 H   0  0  0  0  0  0  0  0  0  0  0  0
  1  2  1  0  0  0  0
  2  3  1  0  0  0  0
  3  4  1  0  0  0  0
  4  5  1  0  0  0  0
  1  6  1  0  0  0  0
  5  6  1  0  0  0  0
  4  7  1  0  0  0  0
  1  8  1  0  0  0  0
  1  9  1  0  0  0  0
  2 10  1  0  0  0  0
  2 11  1  0  0  0  0
  3 12  1  0  0  0  0
  3 13  1  0  0  0  0
  4 14  1  0  0  0  0
  5 15  1  0  0  0  0
  5 16  1  0  0  0  0
  6 17  1  0  0  0  0
  6 18  1  0  0  0  0
  7 19  1  0  0  0  0
M  END
