31
 xtb: 6.7.1 (edcfbbe)
C            3.73927144031536        0.31767371135071        0.20060014915183
C            2.31294721751767        0.17892530079860       -0.32336204086657
H            2.35526595140260       -0.06342121715246       -1.39597743155465
C            1.52315100281970        1.47825675407836       -0.16549468605440
C            0.07604064119079        1.33067076304957       -0.63421950194345
C           -0.66422482908985        0.21479376131654        0.12254736387247
H           -0.62411284381684        0.45975220951320        1.19612788447328
C            0.13220073512385       -1.08465880483339       -0.08699917761921
H            0.12830350564254       -1.30852997774277       -1.16717402095514
C            1.57142853140912       -0.95413885732241        0.38779799881850
O           -0.42231190587305       -2.21975250311692        0.61737017549488
C           -2.15946960476792        0.05261711252445       -0.27999702012339
C           -3.01335202404749       -0.39790405108598        0.91339795251986
C           -2.79379666106570        1.31883551951848       -0.86463989649247
H            4.27780518566051        1.11385645396453       -0.32499326292601
H            3.73360302987815        0.56381109881230        1.26935549761755
H            4.30292730321249       -0.61307029093511        0.07313380946712
H            1.53286651444608        1.76989788719133        0.89526392832164
H            2.01639026223200        2.28444331381175       -0.72276001194862
H           -0.44685548532021        2.28184869532337       -0.49906669459475
H            0.06131974822241        1.11094597973829       -1.71151707846084
H            1.56851204957334       -0.76203745750451        1.47093436799946
H            2.08963755779701       -1.90737644014060        0.22560970964489
H           -1.26993232269204       -2.43646511733467        0.20901660455570
H           -2.20995773319564       -0.72366647949787       -1.06004369930077
H           -4.04266183963078       -0.60309055602013        0.59872333829498
H           -3.04668956337887        0.39939780374498        1.66608409973290
H           -2.62589802301878       -1.29422700249734        1.40450001055046
H           -3.84705857336919        1.12788063188987       -1.09767599601934
H           -2.30458105310961        1.64757771802133       -1.78539354791579
H           -2.75942288093681        2.14474524965260       -0.14446868431230
