 xtb: 6.7.1 (edcfbbe)
          04062518003D

 24 24  0     0  0            999 V2000
   -2.2170   -1.1951    0.1111 C   0  0  0  0  0  0  0  0  0  0  0  0
   -0.8482   -0.5718    0.4310 C   0  0  0  0  0  0  0  0  0  0  0  0
   -0.7969   -0.2986    1.4957 H   0  0  0  0  0  0  0  0  0  0  0  0
   -0.5960    0.6988   -0.3949 C   0  0  0  0  0  0  0  0  0  0  0  0
   -0.6492    0.4378   -1.4654 H   0  0  0  0  0  0  0  0  0  0  0  0
    0.8084    1.2727   -0.1054 C   0  0  0  0  0  0  0  0  0  0  0  0
    0.6913    2.0706    0.6353 H   0  0  0  0  0  0  0  0  0  0  0  0
    1.7447    0.1989    0.4861 C   0  0  0  0  0  0  0  0  0  0  0  0
    2.7705    0.4716    0.2043 H   0  0  0  0  0  0  0  0  0  0  0  0
    1.4110   -1.1566   -0.1583 C   0  0  0  0  0  0  0  0  0  0  0  0
    2.0727   -1.9457    0.2329 H   0  0  0  0  0  0  0  0  0  0  0  0
    0.1140   -1.5889    0.1629 O   0  0  0  0  0  0  0  0  0  0  0  0
    1.5847   -1.0113   -1.5362 O   0  0  0  0  0  0  0  0  0  0  0  0
    1.5872    0.1655    1.8794 O   0  0  0  0  0  0  0  0  0  0  0  0
    1.3808    1.8719   -1.2353 O   0  0  0  0  0  0  0  0  0  0  0  0
   -1.5351    1.6996   -0.0940 O   0  0  0  0  0  0  0  0  0  0  0  0
   -3.2962   -0.3901    0.5158 O   0  0  0  0  0  0  0  0  0  0  0  0
   -2.2539   -2.1869    0.5736 H   0  0  0  0  0  0  0  0  0  0  0  0
   -2.3146   -1.3157   -0.9706 H   0  0  0  0  0  0  0  0  0  0  0  0
    1.4353   -1.8598   -1.9814 H   0  0  0  0  0  0  0  0  0  0  0  0
    2.2955   -0.3557    2.2850 H   0  0  0  0  0  0  0  0  0  0  0  0
    1.5385    1.1848   -1.9032 H   0  0  0  0  0  0  0  0  0  0  0  0
   -2.4279    1.3082   -0.1138 H   0  0  0  0  0  0  0  0  0  0  0  0
   -3.3597   -0.3896    1.4816 H   0  0  0  0  0  0  0  0  0  0  0  0
  1  2  1  0  0  0  0
  2  3  1  0  0  0  0
  2  4  1  0  0  0  0
  4  5  1  0  0  0  0
  4  6  1  0  0  0  0
  6  7  1  0  0  0  0
  6  8  1  0  0  0  0
  8  9  1  0  0  0  0
  8 10  1  0  0  0  0
 10 11  1  0  0  0  0
  2 12  1  0  0  0  0
 10 12  1  0  0  0  0
 10 13  1  0  0  0  0
  8 14  1  0  0  0  0
  6 15  1  0  0  0  0
  4 16  1  0  0  0  0
  1 17  1  0  0  0  0
  1 18  1  0  0  0  0
  1 19  1  0  0  0  0
 13 20  1  0  0  0  0
 14 21  1  0  0  0  0
 15 22  1  0  0  0  0
 16 23  1  0  0  0  0
 17 24  1  0  0  0  0
M  END
