 xtb: 6.7.1 (edcfbbe)
          04032521383D

 24 25  0     0  0            999 V2000
    3.2684    1.0752    0.0087 C   0  0  0  0  0  0  0  0  0  0  0  0
    2.2785    0.0345   -0.0015 N   0  0  0  0  0  0  0  0  0  0  0  0
    2.4777   -1.2908    0.0014 C   0  0  0  0  0  0  0  0  0  0  0  0
    1.3618   -1.9974    0.0014 N   0  0  0  0  0  0  0  0  0  0  0  0
    0.3781   -1.0736   -0.0004 C   0  0  0  0  0  0  0  0  0  0  0  0
    0.9146    0.2106   -0.0008 C   0  0  0  0  0  0  0  0  0  0  0  0
    0.0918    1.3737   -0.0039 C   0  0  0  0  0  0  0  0  0  0  0  0
    0.4597    2.5435   -0.0126 O   0  0  0  0  0  0  0  0  0  0  0  0
   -1.2644    1.0511    0.0026 N   0  0  0  0  0  0  0  0  0  0  0  0
   -1.8208   -0.2199    0.0026 C   0  0  0  0  0  0  0  0  0  0  0  0
   -3.0328   -0.3866    0.0056 O   0  0  0  0  0  0  0  0  0  0  0  0
   -0.9647   -1.2873    0.0019 N   0  0  0  0  0  0  0  0  0  0  0  0
   -1.5053   -2.6340   -0.0096 C   0  0  0  0  0  0  0  0  0  0  0  0
   -2.1807    2.1832    0.0049 C   0  0  0  0  0  0  0  0  0  0  0  0
    3.0722    1.7757   -0.8025 H   0  0  0  0  0  0  0  0  0  0  0  0
    3.2189    1.6269    0.9479 H   0  0  0  0  0  0  0  0  0  0  0  0
    4.2530    0.6310   -0.1089 H   0  0  0  0  0  0  0  0  0  0  0  0
    3.4508   -1.7385    0.0019 H   0  0  0  0  0  0  0  0  0  0  0  0
   -2.3081   -2.7016    0.7223 H   0  0  0  0  0  0  0  0  0  0  0  0
   -0.6947   -3.3140    0.2317 H   0  0  0  0  0  0  0  0  0  0  0  0
   -1.9109   -2.8637   -0.9946 H   0  0  0  0  0  0  0  0  0  0  0  0
   -3.1927    1.8014   -0.0942 H   0  0  0  0  0  0  0  0  0  0  0  0
   -1.9326    2.8437   -0.8245 H   0  0  0  0  0  0  0  0  0  0  0  0
   -2.0726    2.7370    0.9367 H   0  0  0  0  0  0  0  0  0  0  0  0
  1  2  1  0  0  0  0
  2  3  4  0  0  0  0
  3  4  4  0  0  0  0
  4  5  4  0  0  0  0
  2  6  1  0  0  0  0
  5  6  4  0  0  0  0
  6  7  1  0  0  0  0
  7  8  2  0  0  0  0
  7  9  1  0  0  0  0
  9 10  1  0  0  0  0
 10 11  2  0  0  0  0
  5 12  1  0  0  0  0
 10 12  1  0  0  0  0
 12 13  1  0  0  0  0
  9 14  1  0  0  0  0
  1 15  1  0  0  0  0
  1 16  1  0  0  0  0
  1 17  1  0  0  0  0
  3 18  1  0  0  0  0
 13 19  1  0  0  0  0
 13 20  1  0  0  0  0
 13 21  1  0  0  0  0
 14 22  1  0  0  0  0
 14 23  1  0  0  0  0
 14 24  1  0  0  0  0
M  END
