 xtb: 6.7.1 (edcfbbe)
          04062518003D

 24 24  0     0  0            999 V2000
   -2.2898   -1.0714   -0.2392 C   0  0  0  0  0  0  0  0  0  0  0  0
   -0.9146   -0.5769    0.2102 C   0  0  0  0  0  0  0  0  0  0  0  0
   -0.8210   -0.7241    1.2976 H   0  0  0  0  0  0  0  0  0  0  0  0
   -0.7443    0.9307   -0.0886 C   0  0  0  0  0  0  0  0  0  0  0  0
   -1.3600    1.1993   -0.9586 H   0  0  0  0  0  0  0  0  0  0  0  0
    0.7319    1.2471   -0.4124 C   0  0  0  0  0  0  0  0  0  0  0  0
    0.9128    2.2953   -0.1321 H   0  0  0  0  0  0  0  0  0  0  0  0
    1.6239    0.3455    0.4445 C   0  0  0  0  0  0  0  0  0  0  0  0
    2.6799    0.5494    0.2244 H   0  0  0  0  0  0  0  0  0  0  0  0
    1.3754   -1.1351    0.0390 C   0  0  0  0  0  0  0  0  0  0  0  0
    1.5445   -1.7667    0.9268 H   0  0  0  0  0  0  0  0  0  0  0  0
    0.0653   -1.3436   -0.4568 O   0  0  0  0  0  0  0  0  0  0  0  0
    2.2595   -1.5628   -0.9289 O   0  0  0  0  0  0  0  0  0  0  0  0
    1.4272    0.5530    1.8208 O   0  0  0  0  0  0  0  0  0  0  0  0
    1.0637    1.0134   -1.7550 O   0  0  0  0  0  0  0  0  0  0  0  0
   -1.1044    1.7116    1.0269 O   0  0  0  0  0  0  0  0  0  0  0  0
   -3.2549   -0.2433    0.3684 O   0  0  0  0  0  0  0  0  0  0  0  0
   -2.4047   -2.1175    0.0629 H   0  0  0  0  0  0  0  0  0  0  0  0
   -2.3413   -1.0112   -1.3331 H   0  0  0  0  0  0  0  0  0  0  0  0
    2.0856   -1.0584   -1.7429 H   0  0  0  0  0  0  0  0  0  0  0  0
    0.6146    1.0700    1.9607 H   0  0  0  0  0  0  0  0  0  0  0  0
    0.6135    1.6526   -2.3260 H   0  0  0  0  0  0  0  0  0  0  0  0
   -2.0368    1.5380    1.2333 H   0  0  0  0  0  0  0  0  0  0  0  0
   -4.1400   -0.5615    0.1421 H   0  0  0  0  0  0  0  0  0  0  0  0
  1  2  1  0  0  0  0
  2  3  1  0  0  0  0
  2  4  1  0  0  0  0
  4  5  1  0  0  0  0
  4  6  1  0  0  0  0
  6  7  1  0  0  0  0
  6  8  1  0  0  0  0
  8  9  1  0  0  0  0
  8 10  1  0  0  0  0
 10 11  1  0  0  0  0
  2 12  1  0  0  0  0
 10 12  1  0  0  0  0
 10 13  1  0  0  0  0
  8 14  1  0  0  0  0
  6 15  1  0  0  0  0
  4 16  1  0  0  0  0
  1 17  1  0  0  0  0
  1 18  1  0  0  0  0
  1 19  1  0  0  0  0
 13 20  1  0  0  0  0
 14 21  1  0  0  0  0
 15 22  1  0  0  0  0
 16 23  1  0  0  0  0
 17 24  1  0  0  0  0
M  END
